<?xml version="1.0" encoding="UTF-8"?>

<!-- generated on 2023-07-19 13:24:44 by Eclipse SUMO netedit Version 1.17.0
<configuration xmlns:xsi="http://www.w3.org/2001/XMLSchema-instance" xsi:noNamespaceSchemaLocation="http://sumo.dlr.de/xsd/netconvertConfiguration.xsd">

    <input>
        <sumo-net-file value="C:\Users\User\Desktop\simulator\roundabout\net\subang\subang_rltl_roundabout.net.xml"/>
    </input>

    <output>
        <output-file value="C:\Users\User\Desktop\simulator\roundabout\net\subang\subang_rltl_roundabout.net.xml"/>
    </output>

    <processing>
        <geometry.min-radius.fix.railways value="false"/>
        <geometry.max-grade.fix value="false"/>
        <offset.disable-normalization value="true"/>
        <lefthand value="0"/>
    </processing>

    <junctions>
        <no-turnarounds value="true"/>
        <junctions.corner-detail value="5"/>
        <junctions.limit-turn-speed value="5.50"/>
        <rectangular-lane-cut value="0"/>
    </junctions>

    <pedestrian>
        <walkingareas value="0"/>
    </pedestrian>

</configuration>
-->

<net version="1.16" junctionCornerDetail="5" limitTurnSpeed="5.50" xmlns:xsi="http://www.w3.org/2001/XMLSchema-instance" xsi:noNamespaceSchemaLocation="http://sumo.dlr.de/xsd/net_file.xsd">

    <location netOffset="-787483.50,-338961.78" convBoundary="441.33,771.08,1062.64,1306.25" origBoundary="101.583720,3.063510,101.598891,3.088690" projParameter="+proj=utm +zone=47 +ellps=WGS84 +datum=WGS84 +units=m +no_defs"/>

    <type id="highway.bridleway" priority="1" numLanes="1" speed="2.78" allow="pedestrian" oneway="1" width="2.00"/>
    <type id="highway.bus_guideway" priority="1" numLanes="1" speed="27.78" allow="bus" oneway="1"/>
    <type id="highway.cycleway" priority="1" numLanes="1" speed="5.56" allow="bicycle" oneway="0" width="1.00"/>
    <type id="highway.footway" priority="1" numLanes="1" speed="2.78" allow="pedestrian" oneway="1" width="2.00"/>
    <type id="highway.ford" priority="1" numLanes="1" speed="2.78" allow="army" oneway="0"/>
    <type id="highway.living_street" priority="2" numLanes="1" speed="2.78" disallow="tram rail_urban rail rail_electric rail_fast ship" oneway="0"/>
    <type id="highway.motorway" priority="14" numLanes="2" speed="39.44" allow="private emergency authority army vip passenger hov taxi bus coach delivery truck trailer motorcycle evehicle custom1 custom2" oneway="1"/>
    <type id="highway.motorway_link" priority="9" numLanes="1" speed="22.22" allow="private emergency authority army vip passenger hov taxi bus coach delivery truck trailer motorcycle evehicle custom1 custom2" oneway="1"/>
    <type id="highway.path" priority="1" numLanes="1" speed="5.56" allow="pedestrian bicycle" oneway="0" width="2.00"/>
    <type id="highway.pedestrian" priority="1" numLanes="1" speed="2.78" allow="pedestrian" oneway="1" width="2.00"/>
    <type id="highway.primary" priority="12" numLanes="2" speed="27.78" disallow="tram rail_urban rail rail_electric rail_fast ship" oneway="0"/>
    <type id="highway.primary_link" priority="7" numLanes="1" speed="22.22" disallow="tram rail_urban rail rail_electric rail_fast ship" oneway="0"/>
    <type id="highway.raceway" priority="15" numLanes="2" speed="83.33" allow="vip" oneway="0"/>
    <type id="highway.residential" priority="3" numLanes="1" speed="13.89" disallow="tram rail_urban rail rail_electric rail_fast ship" oneway="0"/>
    <type id="highway.secondary" priority="11" numLanes="1" speed="27.78" disallow="tram rail_urban rail rail_electric rail_fast ship" oneway="0"/>
    <type id="highway.secondary_link" priority="6" numLanes="1" speed="22.22" disallow="tram rail_urban rail rail_electric rail_fast ship" oneway="0"/>
    <type id="highway.service" priority="1" numLanes="1" speed="5.56" allow="pedestrian delivery bicycle" oneway="0"/>
    <type id="highway.stairs" priority="1" numLanes="1" speed="1.39" allow="pedestrian" oneway="1" width="2.00"/>
    <type id="highway.step" priority="1" numLanes="1" speed="1.39" allow="pedestrian" oneway="1" width="2.00"/>
    <type id="highway.steps" priority="1" numLanes="1" speed="1.39" allow="pedestrian" oneway="1" width="2.00"/>
    <type id="highway.tertiary" priority="10" numLanes="1" speed="22.22" disallow="tram rail_urban rail rail_electric rail_fast ship" oneway="0"/>
    <type id="highway.tertiary_link" priority="5" numLanes="1" speed="22.22" disallow="tram rail_urban rail rail_electric rail_fast ship" oneway="0"/>
    <type id="highway.track" priority="1" numLanes="1" speed="5.56" allow="pedestrian motorcycle moped bicycle" oneway="0"/>
    <type id="highway.trunk" priority="13" numLanes="2" speed="27.78" disallow="pedestrian bicycle tram rail_urban rail rail_electric rail_fast ship" oneway="0"/>
    <type id="highway.trunk_link" priority="8" numLanes="1" speed="22.22" disallow="pedestrian bicycle tram rail_urban rail rail_electric rail_fast ship" oneway="0"/>
    <type id="highway.unclassified" priority="4" numLanes="1" speed="13.89" disallow="tram rail_urban rail rail_electric rail_fast ship" oneway="0"/>
    <type id="highway.unsurfaced" priority="1" numLanes="1" speed="8.33" disallow="tram rail_urban rail rail_electric rail_fast ship" oneway="0"/>
    <type id="railway.highspeed" priority="21" numLanes="1" speed="69.44" allow="rail_fast" oneway="1"/>
    <type id="railway.light_rail" priority="19" numLanes="1" speed="27.78" allow="rail_urban" oneway="1"/>
    <type id="railway.preserved" priority="16" numLanes="1" speed="27.78" allow="rail" oneway="1"/>
    <type id="railway.rail" priority="20" numLanes="1" speed="44.44" allow="rail" oneway="1"/>
    <type id="railway.subway" priority="18" numLanes="1" speed="27.78" allow="rail_urban" oneway="1"/>
    <type id="railway.tram" priority="17" numLanes="1" speed="13.89" allow="tram" oneway="1"/>

    <edge id=":-EJ0_1_0" function="internal">
        <lane id=":-EJ0_1_0_0" index="0" allow="private emergency authority army vip passenger hov taxi bus coach delivery truck trailer motorcycle evehicle custom1 custom2" speed="25.00" length="19.41" shape="761.78,1015.76 760.10,1012.25 757.70,1008.47 755.57,1003.74 754.69,997.40"/>
        <lane id=":-EJ0_1_0_1" index="1" allow="private emergency authority army vip passenger hov taxi bus coach delivery truck trailer motorcycle evehicle custom1 custom2" speed="25.00" length="19.41" shape="761.78,1015.76 760.60,1012.18 759.30,1008.30 758.27,1003.57 757.89,997.43"/>
    </edge>
    <edge id=":-EJ0_1_2" function="internal">
        <lane id=":-EJ0_1_2_0" index="0" disallow="tram rail_urban rail rail_electric rail_fast ship" speed="27.78" length="18.86" shape="751.10,1016.20 751.49,997.37"/>
        <lane id=":-EJ0_1_2_1" index="1" disallow="tram rail_urban rail rail_electric rail_fast ship" speed="27.78" length="18.86" shape="754.30,1016.26 754.69,997.40"/>
        <lane id=":-EJ0_1_2_2" index="2" disallow="tram rail_urban rail rail_electric rail_fast ship" speed="27.78" length="18.86" shape="757.50,1016.31 757.89,997.43"/>
    </edge>
    <edge id=":-EJ1_1_0" function="internal">
        <lane id=":-EJ1_1_0_0" index="0" allow="private emergency authority army vip passenger hov taxi bus coach delivery truck trailer motorcycle evehicle custom1 custom2" speed="22.22" length="8.20" shape="626.30,1058.46 623.91,1058.22 622.31,1057.68 620.71,1057.15 618.32,1056.94"/>
        <lane id=":-EJ1_1_0_1" index="1" allow="private emergency authority army vip passenger hov taxi bus coach delivery truck trailer motorcycle evehicle custom1 custom2" speed="22.22" length="8.20" shape="626.29,1055.26 623.90,1055.52 622.30,1056.08 620.71,1056.65 618.32,1056.94"/>
        <lane id=":-EJ1_1_0_2" index="2" allow="private emergency authority army vip passenger hov taxi bus coach delivery truck trailer motorcycle evehicle custom1 custom2" speed="22.22" length="8.20" shape="626.27,1052.06 623.87,1052.32 622.27,1052.89 620.67,1053.45 618.27,1053.74"/>
    </edge>
    <edge id=":-J0_0" function="internal">
        <lane id=":-J0_0_0" index="0" disallow="tram rail_urban rail rail_electric rail_fast ship" speed="16.93" length="19.96" shape="720.03,1045.94 716.30,1050.29 714.34,1053.78 713.40,1057.75 712.75,1063.50"/>
        <lane id=":-J0_0_1" index="1" disallow="tram rail_urban rail rail_electric rail_fast ship" speed="22.17" length="19.96" shape="717.38,1044.13 713.95,1049.08 711.80,1052.69 710.51,1056.62 709.64,1062.51"/>
    </edge>
    <edge id=":-J0_2" function="internal">
        <lane id=":-J0_2_0" index="0" allow="private emergency authority army vip passenger hov taxi bus coach delivery truck trailer motorcycle evehicle custom1 custom2" speed="14.31" length="18.59" shape="717.38,1044.13 713.39,1049.55 709.80,1053.56 706.59,1056.15 703.78,1057.34"/>
        <lane id=":-J0_2_1" index="1" allow="private emergency authority army vip passenger hov taxi bus coach delivery truck trailer motorcycle evehicle custom1 custom2" speed="14.25" length="18.59" shape="717.38,1044.13 714.22,1047.97 710.58,1050.97 706.46,1053.13 701.85,1054.44"/>
        <lane id=":-J0_2_2" index="2" allow="private emergency authority army vip passenger hov taxi bus coach delivery truck trailer motorcycle evehicle custom1 custom2" speed="13.84" length="18.59" shape="714.73,1042.33 711.08,1047.26 707.71,1050.93 704.63,1053.32 701.85,1054.44"/>
        <lane id=":-J0_2_3" index="3" allow="private emergency authority army vip passenger hov taxi bus coach delivery truck trailer motorcycle evehicle custom1 custom2" speed="13.80" length="18.59" shape="714.73,1042.33 711.91,1045.69 708.50,1048.34 704.50,1050.29 699.92,1051.54"/>
    </edge>
    <edge id=":-J1_0" function="internal">
        <lane id=":-J1_0_0" index="0" disallow="tram rail_urban rail rail_electric rail_fast ship" speed="11.20" length="7.22" shape="732.71,1111.88 734.33,1112.74 735.58,1113.03 736.91,1113.02 738.80,1112.97"/>
        <lane id=":-J1_0_1" index="1" disallow="tram rail_urban rail rail_electric rail_fast ship" speed="12.61" length="7.22" shape="731.00,1114.59 733.07,1115.72 734.66,1116.15 736.35,1116.20 738.76,1116.17"/>
    </edge>
    <edge id=":-J1_2" function="internal">
        <lane id=":-J1_2_0" index="0" disallow="tram rail_urban rail rail_electric rail_fast ship" speed="8.35" length="8.83" shape="731.00,1114.59 733.04,1116.13 734.49,1117.81 735.36,1119.65 735.66,1121.65"/>
        <lane id=":-J1_2_1" index="1" disallow="tram rail_urban rail rail_electric rail_fast ship" speed="6.78" length="5.61" shape="729.30,1117.30 730.68,1118.31 731.67,1119.38 732.26,1120.50 732.46,1121.66"/>
    </edge>
    <edge id=":-J1U_0" function="internal">
        <lane id=":-J1U_0_0" index="0" allow="private emergency authority army vip passenger hov taxi bus coach delivery truck trailer motorcycle evehicle custom1 custom2" speed="6.56" length="8.26" shape="693.53,1063.16 692.93,1060.98 691.80,1059.43 690.15,1058.51 687.97,1058.20"/>
    </edge>
    <edge id=":-J1U_1" function="internal">
        <lane id=":-J1U_1_0" index="0" allow="private emergency authority army vip passenger hov taxi bus coach delivery truck trailer motorcycle evehicle custom1 custom2" speed="22.22" length="9.41" shape="697.41,1058.11 687.97,1058.20"/>
        <lane id=":-J1U_1_1" index="1" allow="private emergency authority army vip passenger hov taxi bus coach delivery truck trailer motorcycle evehicle custom1 custom2" speed="22.22" length="9.41" shape="697.37,1054.92 687.96,1055.00"/>
        <lane id=":-J1U_1_2" index="2" allow="private emergency authority army vip passenger hov taxi bus coach delivery truck trailer motorcycle evehicle custom1 custom2" speed="22.22" length="9.41" shape="697.33,1051.72 687.95,1051.80"/>
    </edge>
    <edge id=":-J2_0" function="internal">
        <lane id=":-J2_0_0" index="0" disallow="tram rail_urban rail rail_electric rail_fast ship" speed="17.08" length="11.69" shape="770.29,1100.94 772.25,1098.28 773.24,1096.21 773.78,1093.93 774.40,1090.63"/>
        <lane id=":-J2_0_1" index="1" disallow="tram rail_urban rail rail_electric rail_fast ship" speed="17.66" length="11.69" shape="772.77,1102.96 774.90,1100.12 776.03,1097.94 776.68,1095.53 777.39,1092.02"/>
    </edge>
    <edge id=":-J2_2" function="internal">
        <lane id=":-J2_2_0" index="0" allow="private emergency authority army vip passenger hov taxi bus coach delivery truck trailer motorcycle evehicle custom1 custom2" speed="17.51" length="11.35" shape="772.77,1102.96 774.76,1100.21 776.09,1098.22 777.72,1096.62 780.59,1095.03"/>
        <lane id=":-J2_2_1" index="1" allow="private emergency authority army vip passenger hov taxi bus coach delivery truck trailer motorcycle evehicle custom1 custom2" speed="16.94" length="10.62" shape="772.77,1102.96 774.92,1100.77 776.79,1099.73 778.93,1099.06 781.90,1097.95"/>
    </edge>
    <edge id=":-J3_0" function="internal">
        <lane id=":-J3_0_0" index="0" disallow="tram rail_urban rail rail_electric rail_fast ship" speed="18.29" length="20.75" shape="765.54,1041.39 760.65,1037.94 756.90,1036.10 752.78,1035.30 746.79,1034.95"/>
        <lane id=":-J3_0_1" index="1" disallow="tram rail_urban rail rail_electric rail_fast ship" speed="18.64" length="20.75" shape="767.12,1038.58 762.10,1035.05 758.13,1033.09 753.78,1032.18 747.65,1031.78"/>
    </edge>
    <edge id=":-J3_2" function="internal">
        <lane id=":-J3_2_0" index="0" disallow="tram rail_urban rail rail_electric rail_fast ship" speed="15.98" length="20.32" shape="767.12,1038.58 761.84,1035.48 757.64,1033.63 754.49,1031.09 752.39,1025.94"/>
        <lane id=":-J3_2_1" index="1" disallow="tram rail_urban rail rail_electric rail_fast ship" speed="15.45" length="18.96" shape="767.12,1038.58 762.48,1035.34 759.25,1032.88 757.02,1029.78 755.37,1024.61"/>
        <lane id=":-J3_2_2" index="2" disallow="tram rail_urban rail rail_electric rail_fast ship" speed="15.18" length="18.30" shape="767.12,1038.58 763.04,1035.17 760.81,1032.17 759.54,1028.55 758.35,1023.27"/>
    </edge>
    <edge id=":-J3U_0" function="internal">
        <lane id=":-J3U_0_0" index="0" allow="private emergency authority army vip passenger hov taxi bus coach delivery truck trailer motorcycle evehicle custom1 custom2" speed="8.83" length="7.49" shape="799.71,1088.28 801.43,1089.87 803.06,1091.00 804.61,1091.66 806.07,1091.86"/>
    </edge>
    <edge id=":-J3U_1" function="internal">
        <lane id=":-J3U_1_0" index="0" allow="private emergency authority army vip passenger hov taxi bus coach delivery truck trailer motorcycle evehicle custom1 custom2" speed="22.22" length="7.58" shape="798.43,1092.39 806.07,1091.86"/>
        <lane id=":-J3U_1_1" index="1" allow="private emergency authority army vip passenger hov taxi bus coach delivery truck trailer motorcycle evehicle custom1 custom2" speed="22.22" length="7.58" shape="798.65,1095.58 806.14,1095.06"/>
    </edge>
    <edge id=":EJ0_1_0" function="internal">
        <lane id=":EJ0_1_0_0" index="0" disallow="tram rail_urban rail rail_electric rail_fast ship" speed="27.78" length="0.30" shape="736.82,915.91 736.82,916.19"/>
        <lane id=":EJ0_1_0_1" index="1" disallow="tram rail_urban rail rail_electric rail_fast ship" speed="27.78" length="0.30" shape="733.62,915.95 733.62,916.25"/>
        <lane id=":EJ0_1_0_2" index="2" disallow="tram rail_urban rail rail_electric rail_fast ship" speed="27.78" length="0.30" shape="730.42,915.99 730.42,916.31"/>
    </edge>
    <edge id=":EJ0_2_0" function="internal">
        <lane id=":EJ0_2_0_0" index="0" disallow="tram rail_urban rail rail_electric rail_fast ship" speed="27.78" length="0.30" shape="738.29,999.17 738.29,999.49"/>
        <lane id=":EJ0_2_0_1" index="1" disallow="tram rail_urban rail rail_electric rail_fast ship" speed="27.78" length="0.30" shape="735.09,999.23 735.09,999.53"/>
        <lane id=":EJ0_2_0_2" index="2" disallow="tram rail_urban rail rail_electric rail_fast ship" speed="27.78" length="0.30" shape="731.89,999.29 731.89,999.57"/>
    </edge>
    <edge id=":EJ2_1_0" function="internal">
        <lane id=":EJ2_1_0_0" index="0" disallow="tram rail_urban rail rail_electric rail_fast ship" speed="27.78" length="0.28" shape="751.45,1133.18 751.45,1132.97"/>
        <lane id=":EJ2_1_0_1" index="1" disallow="tram rail_urban rail rail_electric rail_fast ship" speed="27.78" length="0.28" shape="754.65,1133.15 754.65,1132.87"/>
        <lane id=":EJ2_1_0_2" index="2" disallow="tram rail_urban rail rail_electric rail_fast ship" speed="27.78" length="0.28" shape="757.85,1133.12 757.84,1132.77"/>
    </edge>
    <edge id=":EJ3_1_0" function="internal">
        <lane id=":EJ3_1_0_0" index="0" allow="private emergency authority army vip passenger hov taxi bus coach delivery truck trailer motorcycle evehicle custom1 custom2" speed="22.22" length="3.53" shape="849.16,1055.99 848.22,1055.74 847.66,1055.19 847.11,1054.65 846.17,1054.41"/>
        <lane id=":EJ3_1_0_1" index="1" allow="private emergency authority army vip passenger hov taxi bus coach delivery truck trailer motorcycle evehicle custom1 custom2" speed="22.22" length="3.53" shape="849.15,1052.79 848.20,1052.54 847.64,1051.99 847.08,1051.45 846.13,1051.21"/>
        <lane id=":EJ3_1_0_2" index="2" allow="private emergency authority army vip passenger hov taxi bus coach delivery truck trailer motorcycle evehicle custom1 custom2" speed="22.22" length="3.53" shape="849.15,1049.59 848.19,1049.34 847.62,1048.79 847.05,1048.25 846.08,1048.01"/>
    </edge>
    <edge id=":EJ3_1_3" function="internal">
        <lane id=":EJ3_1_3_0" index="0" allow="private emergency authority army vip passenger hov taxi bus coach delivery truck trailer motorcycle evehicle custom1 custom2" speed="22.22" length="5.57" shape="849.14,1046.39 846.12,1051.07"/>
    </edge>
    <edge id=":J0_0" function="internal">
        <lane id=":J0_0_0" index="0" disallow="tram rail_urban rail rail_electric rail_fast ship" speed="24.09" length="16.94" shape="742.40,1034.90 737.59,1035.54 734.33,1036.34 731.28,1037.74 727.07,1040.17"/>
        <lane id=":J0_0_1" index="1" disallow="tram rail_urban rail rail_electric rail_fast ship" speed="24.83" length="16.94" shape="742.03,1031.72 736.91,1032.39 733.44,1033.22 730.19,1034.68 725.71,1037.26"/>
    </edge>
    <edge id=":J0_2" function="internal">
        <lane id=":J0_2_0" index="0" disallow="tram rail_urban rail rail_electric rail_fast ship" speed="13.60" length="15.61" shape="737.42,1026.11 735.98,1030.44 733.77,1034.22 730.80,1037.47 727.07,1040.17"/>
        <lane id=":J0_2_1" index="1" disallow="tram rail_urban rail rail_electric rail_fast ship" speed="12.71" length="15.61" shape="734.43,1024.83 733.16,1028.76 731.28,1032.15 728.80,1034.98 725.71,1037.26"/>
        <lane id=":J0_2_2" index="2" disallow="tram rail_urban rail rail_electric rail_fast ship" speed="11.74" length="15.61" shape="731.45,1023.55 730.34,1027.09 728.79,1030.07 726.79,1032.49 724.35,1034.35"/>
    </edge>
    <edge id=":J1_0" function="internal">
        <lane id=":J1_0_0" index="0" disallow="tram rail_urban rail rail_electric rail_fast ship" speed="27.78" length="16.01" shape="713.78,1089.64 715.04,1094.08 716.65,1096.84 718.75,1099.42 721.48,1103.28"/>
        <lane id=":J1_0_1" index="1" disallow="tram rail_urban rail rail_electric rail_fast ship" speed="27.78" length="16.01" shape="710.81,1091.13 712.11,1095.64 713.78,1098.44 715.96,1101.04 718.76,1104.96"/>
    </edge>
    <edge id=":J1_2" function="internal">
        <lane id=":J1_2_0" index="0" allow="private emergency authority army vip passenger hov taxi bus coach delivery truck trailer motorcycle evehicle custom1 custom2" speed="14.36" length="15.53" shape="707.54,1094.16 712.48,1095.57 715.87,1096.94 718.58,1099.19 721.48,1103.28"/>
        <lane id=":J1_2_1" index="1" allow="private emergency authority army vip passenger hov taxi bus coach delivery truck trailer motorcycle evehicle custom1 custom2" speed="13.61" length="15.53" shape="706.10,1097.07 710.54,1098.29 713.64,1099.42 716.13,1101.34 718.76,1104.96"/>
        <lane id=":J1_2_2" index="2" allow="private emergency authority army vip passenger hov taxi bus coach delivery truck trailer motorcycle evehicle custom1 custom2" speed="12.82" length="15.53" shape="704.65,1099.98 708.61,1101.01 711.42,1101.90 713.68,1103.49 716.03,1106.64"/>
    </edge>
    <edge id=":J1_U_0" function="internal">
        <lane id=":J1_U_0_0" index="0" allow="private emergency authority army vip passenger hov taxi bus coach delivery truck trailer motorcycle evehicle custom1 custom2" speed="6.47" length="7.27" shape="688.89,1091.55 690.59,1091.27 691.96,1090.42 693.02,1088.98 693.75,1086.97"/>
    </edge>
    <edge id=":J1_U_1" function="internal">
        <lane id=":J1_U_1_0" index="0" allow="private emergency authority army vip passenger hov taxi bus coach delivery truck trailer motorcycle evehicle custom1 custom2" speed="22.22" length="7.98" shape="688.89,1091.55 696.90,1091.67"/>
        <lane id=":J1_U_1_1" index="1" allow="private emergency authority army vip passenger hov taxi bus coach delivery truck trailer motorcycle evehicle custom1 custom2" speed="22.22" length="7.98" shape="688.87,1094.75 696.85,1094.87"/>
        <lane id=":J1_U_1_2" index="2" allow="private emergency authority army vip passenger hov taxi bus coach delivery truck trailer motorcycle evehicle custom1 custom2" speed="22.22" length="7.98" shape="688.86,1097.95 696.80,1098.07"/>
    </edge>
    <edge id=":J2_0" function="internal">
        <lane id=":J2_0_0" index="0" disallow="tram rail_urban rail rail_electric rail_fast ship" speed="18.20" length="22.84" shape="746.13,1112.90 752.48,1112.27 757.29,1111.27 761.62,1109.20 766.56,1105.33"/>
        <lane id=":J2_0_1" index="1" disallow="tram rail_urban rail rail_electric rail_fast ship" speed="18.58" length="22.84" shape="746.88,1116.05 753.37,1115.36 758.49,1114.25 763.14,1112.06 768.22,1108.14"/>
    </edge>
    <edge id=":J2_2" function="internal">
        <lane id=":J2_2_0" index="0" disallow="tram rail_urban rail rail_electric rail_fast ship" speed="18.00" length="22.23" shape="751.88,1122.04 753.97,1115.75 757.18,1112.09 761.40,1109.22 766.56,1105.33"/>
        <lane id=":J2_2_1" index="1" disallow="tram rail_urban rail rail_electric rail_fast ship" speed="17.83" length="22.23" shape="754.80,1123.84 756.43,1117.34 758.63,1113.04 761.86,1109.52 766.56,1105.33"/>
        <lane id=":J2_2_2" index="2" disallow="tram rail_urban rail rail_electric rail_fast ship" speed="17.21" length="22.23" shape="757.73,1125.63 759.10,1119.61 760.87,1115.63 763.69,1112.28 768.22,1108.14"/>
    </edge>
    <edge id=":J3_0" function="internal">
        <lane id=":J3_0_0" index="0" disallow="tram rail_urban rail rail_electric rail_fast ship" speed="14.73" length="14.31" shape="774.06,1055.72 773.37,1051.66 772.30,1048.99 770.52,1046.65 767.67,1043.60"/>
        <lane id=":J3_0_1" index="1" disallow="tram rail_urban rail rail_electric rail_fast ship" speed="19.81" length="14.31" shape="776.88,1053.93 775.65,1049.82 774.52,1047.06 772.86,1044.61 770.01,1041.42"/>
    </edge>
    <edge id=":J3_2" function="internal">
        <lane id=":J3_2_0" index="0" allow="private emergency authority army vip passenger hov taxi bus coach delivery truck trailer motorcycle evehicle custom1 custom2" speed="25.00" length="13.87" shape="779.93,1050.86 776.03,1049.07 773.25,1047.95 770.75,1046.47 767.67,1043.60"/>
        <lane id=":J3_2_1" index="1" allow="private emergency authority army vip passenger hov taxi bus coach delivery truck trailer motorcycle evehicle custom1 custom2" speed="25.00" length="13.87" shape="781.41,1048.02 777.80,1046.39 775.21,1045.39 772.87,1044.06 770.01,1041.42"/>
    </edge>
    <edge id=":J3U_0" function="internal">
        <lane id=":J3U_0_0" index="0" allow="private emergency authority army vip passenger hov taxi bus coach delivery truck trailer motorcycle evehicle custom1 custom2" speed="13.16" length="6.49" shape="812.94,1054.89 811.06,1055.05 809.82,1055.45 808.64,1056.12 806.97,1057.09"/>
    </edge>
    <edge id=":J3U_1" function="internal">
        <lane id=":J3U_1_0" index="0" allow="private emergency authority army vip passenger hov taxi bus coach delivery truck trailer motorcycle evehicle custom1 custom2" speed="22.22" length="7.15" shape="812.90,1051.69 810.83,1051.97 809.46,1052.54 808.09,1053.12 806.02,1053.40"/>
        <lane id=":J3U_1_1" index="1" allow="private emergency authority army vip passenger hov taxi bus coach delivery truck trailer motorcycle evehicle custom1 custom2" speed="22.22" length="7.15" shape="812.85,1048.49 810.78,1048.77 809.41,1049.34 808.04,1049.92 805.97,1050.20"/>
    </edge>

    <edge id="-edge0_1" from="-J3" to="-EJ0_1" priority="11" type="highway.secondary" spreadType="center" shape="759.79,1035.86 756.01,1027.47 754.24,1019.61 754.75,990.56">
        <lane id="-edge0_1_0" index="0" disallow="tram rail_urban rail rail_electric rail_fast ship" speed="27.78" length="8.48" shape="752.39,1025.94 751.03,1019.94 751.10,1016.20"/>
        <lane id="-edge0_1_1" index="1" disallow="tram rail_urban rail rail_electric rail_fast ship" speed="27.78" length="8.48" shape="755.37,1024.61 754.24,1019.61 754.30,1016.26"/>
        <lane id="-edge0_1_2" index="2" disallow="tram rail_urban rail rail_electric rail_fast ship" speed="27.78" length="8.48" shape="758.35,1023.27 757.45,1019.28 757.50,1016.31"/>
    </edge>
    <edge id="-edge0_2" from="-EJ0_1" to="-EJ0" priority="11" type="highway.secondary" spreadType="center">
        <lane id="-edge0_2_0" index="0" disallow="tram rail_urban rail rail_electric rail_fast ship" speed="27.78" length="226.33" acceleration="1" shape="751.49,997.37 753.60,771.05"/>
        <lane id="-edge0_2_1" index="1" disallow="tram rail_urban rail rail_electric rail_fast ship" speed="27.78" length="226.33" acceleration="1" shape="754.69,997.40 756.80,771.08"/>
        <lane id="-edge0_2_2" index="2" disallow="tram rail_urban rail rail_electric rail_fast ship" speed="27.78" length="226.33" shape="757.89,997.43 760.00,771.11"/>
    </edge>
    <edge id="-edge1_1" from="-J0" to="-J1U" priority="9" type="highway.motorway_link" spreadType="center" shape="714.62,1048.17 706.87,1053.52 699.37,1054.89 691.41,1054.99">
        <lane id="-edge1_1_0" index="0" allow="private emergency authority army vip passenger hov taxi bus coach delivery truck trailer motorcycle evehicle custom1 custom2" speed="22.22" length="4.52" shape="703.78,1057.34 699.68,1058.09 697.41,1058.11"/>
        <lane id="-edge1_1_1" index="1" allow="private emergency authority army vip passenger hov taxi bus coach delivery truck trailer motorcycle evehicle custom1 custom2" speed="22.22" length="4.52" shape="701.85,1054.44 699.37,1054.89 697.37,1054.92"/>
        <lane id="-edge1_1_2" index="2" allow="private emergency authority army vip passenger hov taxi bus coach delivery truck trailer motorcycle evehicle custom1 custom2" speed="22.22" length="4.52" shape="699.92,1051.54 699.06,1051.69 697.33,1051.72"/>
    </edge>
    <edge id="-edge1_2" from="-J1U" to="-EJ1_1" priority="9" type="highway.motorway_link" spreadType="center">
        <lane id="-edge1_2_0" index="0" allow="private emergency authority army vip passenger hov taxi bus coach delivery truck trailer motorcycle evehicle custom1 custom2" speed="22.22" length="61.67" shape="687.97,1058.20 626.30,1058.46"/>
        <lane id="-edge1_2_1" index="1" allow="private emergency authority army vip passenger hov taxi bus coach delivery truck trailer motorcycle evehicle custom1 custom2" speed="22.22" length="61.67" shape="687.96,1055.00 626.29,1055.26"/>
        <lane id="-edge1_2_2" index="2" allow="private emergency authority army vip passenger hov taxi bus coach delivery truck trailer motorcycle evehicle custom1 custom2" speed="22.22" length="61.67" shape="687.95,1051.80 626.27,1052.06"/>
    </edge>
    <edge id="-edge1_3" from="-EJ1_1" to="-EJ1" priority="9" type="highway.motorway_link" spreadType="center" shape="622.29,1055.28 455.95,1057.74 441.33,1060.78">
        <lane id="-edge1_3_0" index="0" allow="private emergency authority army vip passenger hov taxi bus coach delivery truck trailer motorcycle evehicle custom1 custom2" speed="22.22" length="177.29" shape="618.32,1056.94 456.13,1059.34 441.66,1062.35"/>
        <lane id="-edge1_3_1" index="1" allow="private emergency authority army vip passenger hov taxi bus coach delivery truck trailer motorcycle evehicle custom1 custom2" speed="22.22" length="177.29" shape="618.27,1053.74 455.77,1056.14 441.00,1059.21"/>
    </edge>
    <edge id="-edge2" from="-J1" to="-EJ2" priority="-1">
        <lane id="-edge2_0" index="0" speed="13.89" length="184.58" shape="735.66,1121.65 736.51,1306.23"/>
        <lane id="-edge2_1" index="1" speed="13.89" length="184.58" shape="732.46,1121.66 733.31,1306.24"/>
    </edge>
    <edge id="-edge3_1" from="-J2" to="-J3U" priority="9" type="highway.motorway_link" spreadType="center" shape="772.96,1100.19 782.43,1095.96 791.76,1094.45 806.29,1093.46">
        <lane id="-edge3_1_0" index="0" allow="private emergency authority army vip passenger hov taxi bus coach delivery truck trailer motorcycle evehicle custom1 custom2" speed="22.22" length="17.54" shape="780.59,1095.03 781.97,1094.41 791.58,1092.86 798.43,1092.39"/>
        <lane id="-edge3_1_1" index="1" allow="private emergency authority army vip passenger hov taxi bus coach delivery truck trailer motorcycle evehicle custom1 custom2" speed="22.22" length="17.54" shape="781.90,1097.95 782.89,1097.51 791.94,1096.04 798.65,1095.58"/>
    </edge>
    <edge id="-edge3_2" from="-J3U" to="-EJ3" priority="9" type="highway.motorway_link" spreadType="center" shape="806.29,1093.46 822.08,1093.13 846.33,1092.51 856.54,1093.35 871.74,1097.54 883.53,1100.39 893.28,1102.19 978.25,1101.95 1062.64,1103.50">