<?xml version="1.0" encoding="UTF-8"?>

<!-- generated on 2023-07-02 08:54:06 by Eclipse SUMO netedit Version 1.17.0
<configuration xmlns:xsi="http://www.w3.org/2001/XMLSchema-instance" xsi:noNamespaceSchemaLocation="http://sumo.dlr.de/xsd/netconvertConfiguration.xsd">

    <input>
        <sumo-net-file value="C:\Users\User\Desktop\simulator\roundabout\net\notl_roundabout.net.xml"/>
    </input>

    <output>
        <output-file value="C:\Users\User\Desktop\simulator\roundabout\net\notl_roundabout.net.xml"/>
    </output>

    <processing>
        <geometry.min-radius.fix.railways value="false"/>
        <geometry.max-grade.fix value="false"/>
        <offset.disable-normalization value="true"/>
        <lefthand value="1"/>
    </processing>

    <junctions>
        <no-turnarounds value="true"/>
        <junctions.corner-detail value="5"/>
        <junctions.limit-turn-speed value="5.50"/>
        <rectangular-lane-cut value="0"/>
    </junctions>

    <pedestrian>
        <walkingareas value="0"/>
    </pedestrian>

</configuration>
-->

<net version="1.16" junctionCornerDetail="5" lefthand="true" limitTurnSpeed="5.50" xmlns:xsi="http://www.w3.org/2001/XMLSchema-instance" xsi:noNamespaceSchemaLocation="http://sumo.dlr.de/xsd/net_file.xsd">

    <location netOffset="0.00,0.00" convBoundary="-400.00,-300.00,400.00,500.00" origBoundary="-10000000000.00,-10000000000.00,10000000000.00,10000000000.00" projParameter="!"/>

    <edge id=":J0_0" function="internal">
        <lane id=":J0_0_0" index="0" speed="6.72" length="7.87" shape="-8.00,-10.94 -8.27,-8.81 -9.08,-7.14 -10.43,-5.91 -12.33,-5.14"/>
        <lane id=":J0_0_1" index="1" speed="8.21" length="12.15" shape="-4.80,-10.94 -5.22,-7.68 -6.49,-5.11 -8.59,-3.23 -11.55,-2.04"/>
        <lane id=":J0_0_2" index="2" speed="9.46" length="16.43" shape="-1.60,-10.94 -2.17,-6.55 -3.89,-3.09 -6.75,-0.55 -10.76,1.06"/>
    </edge>
    <edge id=":J0_3" function="internal">
        <lane id=":J0_3_0" index="0" speed="6.56" length="7.68" shape="12.40,-5.47 10.47,-6.17 9.10,-7.32 8.27,-8.91 8.00,-10.94"/>
        <lane id=":J0_3_1" index="1" speed="8.07" length="12.06" shape="11.71,-2.34 8.69,-3.45 6.53,-5.25 5.23,-7.74 4.80,-10.94"/>
        <lane id=":J0_3_2" index="2" speed="8.76" length="14.37" shape="11.71,-2.34 7.29,-3.71 4.13,-5.60 2.23,-8.01 1.60,-10.94"/>
    </edge>
    <edge id=":J0_6" function="internal">
        <lane id=":J0_6_0" index="0" speed="13.89" length="22.89" shape="11.71,-2.34 4.87,-3.75 0.05,-4.19 -4.75,-3.64 -11.55,-2.04"/>
        <lane id=":J0_6_1" index="1" speed="13.89" length="22.89" shape="11.02,0.78 4.62,-0.53 0.10,-0.95 -4.40,-0.43 -10.76,1.06"/>
    </edge>
    <edge id=":J1_0" function="internal">
        <lane id=":J1_0_0" index="0" speed="6.54" length="7.96" shape="-105.95,87.34 -106.59,89.38 -107.73,90.84 -109.35,91.71 -111.47,92.00"/>
        <lane id=":J1_0_1" index="1" speed="8.05" length="12.51" shape="-102.80,87.88 -103.81,91.09 -105.59,93.37 -108.14,94.74 -111.47,95.20"/>
        <lane id=":J1_0_2" index="2" speed="8.73" length="14.89" shape="-102.80,87.88 -104.01,92.49 -105.86,95.77 -108.35,97.74 -111.47,98.40"/>
    </edge>
    <edge id=":J1_3" function="internal">
        <lane id=":J1_3_0" index="0" speed="13.89" length="23.61" shape="-102.80,87.88 -103.93,94.97 -104.27,99.91 -103.74,104.83 -102.26,111.84"/>
        <lane id=":J1_3_1" index="1" speed="13.89" length="23.61" shape="-99.64,88.42 -100.72,95.14 -101.04,99.82 -100.54,104.49 -99.14,111.14"/>
    </edge>
    <edge id=":J1_5" function="internal">
        <lane id=":J1_5_0" index="0" speed="6.81" length="8.30" shape="-111.47,108.00 -109.19,108.28 -107.42,109.14 -106.15,110.55 -105.39,112.54"/>
        <lane id=":J1_5_1" index="1" speed="8.27" length="12.67" shape="-111.47,104.80 -108.03,105.24 -105.35,106.56 -103.43,108.76 -102.26,111.84"/>
        <lane id=":J1_5_2" index="2" speed="9.51" length="17.04" shape="-111.47,101.60 -106.88,102.20 -103.29,103.99 -100.71,106.97 -99.14,111.14"/>
    </edge>
    <edge id=":J2_0" function="internal">
        <lane id=":J2_0_0" index="0" speed="6.58" length="7.45" shape="8.00,210.53 8.26,208.56 9.05,207.00 10.36,205.85 12.20,205.10"/>
        <lane id=":J2_0_1" index="1" speed="8.09" length="11.71" shape="4.80,210.53 5.21,207.44 6.45,204.99 8.51,203.18 11.39,202.01"/>
        <lane id=":J2_0_2" index="2" speed="9.36" length="15.97" shape="1.60,210.53 2.16,206.32 3.85,202.98 6.66,200.51 10.59,198.91"/>
    </edge>
    <edge id=":J2_3" function="internal">
        <lane id=":J2_3_0" index="0" speed="6.73" length="7.63" shape="-12.13,204.81 -10.32,205.62 -9.03,206.84 -8.26,208.48 -8.00,210.53"/>
        <lane id=":J2_3_1" index="1" speed="8.22" length="11.79" shape="-11.24,201.74 -8.42,202.99 -6.41,204.87 -5.20,207.38 -4.80,210.53"/>
        <lane id=":J2_3_2" index="2" speed="8.90" length="13.98" shape="-11.24,201.74 -7.02,203.34 -4.01,205.33 -2.20,207.73 -1.60,210.53"/>
    </edge>
    <edge id=":J2_6" function="internal">
        <lane id=":J2_6_0" index="0" speed="13.89" length="22.26" shape="-11.24,201.74 -4.66,203.51 0.05,204.12 4.76,203.61 11.39,202.01"/>
        <lane id=":J2_6_1" index="1" speed="13.89" length="22.26" shape="-10.35,198.67 -4.26,200.30 0.09,200.87 4.46,200.39 10.59,198.91"/>
    </edge>
    <edge id=":J3_0" function="internal">
        <lane id=":J3_0_0" index="0" speed="6.54" length="8.01" shape="111.56,92.00 109.43,91.71 107.80,90.83 106.67,89.36 106.04,87.30"/>
        <lane id=":J3_0_1" index="1" speed="8.05" length="12.59" shape="111.56,95.20 108.21,94.74 105.65,93.35 103.87,91.05 102.88,87.82"/>
        <lane id=":J3_0_2" index="2" speed="9.31" length="17.17" shape="111.56,98.40 107.00,97.77 103.50,95.88 101.07,92.74 99.72,88.33"/>
    </edge>
    <edge id=":J3_3" function="internal">
        <lane id=":J3_3_0" index="0" speed="6.91" length="8.48" shape="105.25,112.54 106.04,110.55 107.36,109.13 109.20,108.28 111.56,108.00"/>
        <lane id=":J3_3_1" index="1" speed="8.36" length="12.81" shape="102.13,111.80 103.34,108.74 105.32,106.55 108.06,105.24 111.56,104.80"/>
        <lane id=":J3_3_2" index="2" speed="9.02" length="15.05" shape="102.13,111.80 103.63,107.34 105.70,104.15 108.34,102.24 111.56,101.60"/>
    </edge>
    <edge id=":J3_6" function="internal">
        <lane id=":J3_6_0" index="0" speed="13.89" length="23.65" shape="102.13,111.80 103.69,104.79 104.27,99.87 103.96,94.92 102.88,87.82"/>
        <lane id=":J3_6_1" index="1" speed="13.89" length="23.65" shape="99.02,111.06 100.49,104.42 101.04,99.76 100.75,95.06 99.72,88.33"/>
    </edge>

    <edge id="-E0" from="J0" to="DE0" priority="1">
        <lane id="-E0_0" index="0" speed="13.89" length="289.06" shape="8.00,-10.94 8.00,-300.00"/>
        <lane id="-E0_1" index="1" speed="13.89" length="289.06" shape="4.80,-10.94 4.80,-300.00"/>
        <lane id="-E0_2" index="2" speed="13.89" length="289.06" shape="1.60,-10.94 1.60,-300.00"/>
    </edge>
    <edge id="-E1" from="J1" to="DE1" priority="1">
        <lane id="-E1_0" index="0" speed="13.89" length="288.53" shape="-111.47,92.00 -400.00,92.00"/>
        <lane id="-E1_1" index="1" speed="13.89" length="288.53" shape="-111.47,95.20 -400.00,95.20"/>
        <lane id="-E1_2" index="2" speed="13.89" length="288.53" shape="-111.47,98.40 -400.00,98.40"/>
    </edge>
    <edge id="-E2" from="J2" to="DE2" priority="1">
        <lane id="-E2_0" index="0" speed="13.89" length="289.47" shape="-8.00,210.53 -8.00,500.00"/>
        <lane id="-E2_1" index="1" speed="13.89" length="289.47" shape="-4.80,210.53 -4.80,500.00"/>
        <lane id="-E2_2" index="2" speed="13.89" length="289.47" shape="-1.60,210.53 -1.60,500.00"/>
    </edge>
    <edge id="-E3" from="J3" to="DE3" priority="1">
        <lane id="-E3_0" index="0" speed="13.89" length="288.44" shape="111.56,108.00 400.00,108.00"/>
        <lane id="-E3_1" index="1" speed="13.89" length="288.44" shape="111.56,104.80 400.00,104.80"/>
        <lane id="-E3_2" index="2" speed="13.89" length="288.44" shape="111.56,101.60 400.00,101.60"/>
    </edge>
    <edge id="E0" from="DE0" to="J0" priority="1">
        <lane id="E0_0" index="0" speed="13.89" length="289.06" shape="-8.00,-300.00 -8.00,-10.94"/>
        <lane id="E0_1" index="1" speed="13.89" length="289.06" shape="-4.80,-300.00 -4.80,-10.94"/>
        <lane id="E0_2" index="2" speed="13.89" length="289.06" shape="-1.60,-300.00 -1.60,-10.94"/>
    </edge>
    <edge id="E1" from="DE1" to="J1" priority="1">
        <lane id="E1_0" index="0" speed="13.89" length="288.53" shape="-400.00,108.00 -111.47,108.00"/>
        <lane id="E1_1" index="1" speed="13.89" length="288.53" shape="-400.00,104.80 -111.47,104.80"/>
        <lane id="E1_2" index="2" speed="13.89" length="288.53" shape="-400.00,101.60 -111.47,101.60"/>
    </edge>
    <edge id="E2" from="DE2" to="J2" priority="1">
        <lane id="E2_0" index="0" speed="13.89" length="289.47" shape="8.00,500.00 8.00,210.53"/>
        <lane id="E2_1" index="1" speed="13.89" length="289.47" shape="4.80,500.00 4.80,210.53"/>
        <lane id="E2_2" index="2" speed="13.89" length="289.47" shape="1.60,500.00 1.60,210.53"/>
    </edge>
    <edge id="E3" from="DE3" to="J3" priority="1">
        <lane id="E3_0" index="0" speed="13.89" length="288.44" shape="400.00,92.00 111.56,92.00"/>
        <lane id="E3_1" index="1" speed="13.89" length="288.44" shape="400.00,95.20 111.56,95.20"/>
        <lane id="E3_2" index="2" speed="13.89" length="288.44" shape="400.00,98.40 111.56,98.40"/>
    </edge>
    <edge id="R1" from="J0" to="J1" priority="2" shape="0.00,0.00 -40.83,10.29 -77.37,35.73 -93.59,62.55 -100.00,100.00">
        <lane id="R1_0" index="0" speed="13.89" length="139.41" shape="-12.33,-5.14 -44.20,2.89 -83.34,30.14 -101.22,59.71 -105.95,87.34"/>
        <lane id="R1_1" index="1" speed="13.89" length="139.41" shape="-11.55,-2.04 -42.85,5.85 -80.95,32.37 -98.17,60.84 -102.80,87.88"/>
        <lane id="R1_2" index="2" speed="13.89" length="139.41" shape="-10.76,1.06 -41.50,8.81 -78.56,34.61 -95.12,61.98 -99.64,88.42"/>
    </edge>
    <edge id="R2" from="J1" to="J2" priority="2" shape="-100.00,100.00 -91.19,139.28 -74.49,168.35 -40.93,188.14 0.00,200.00">
        <lane id="R2_0" index="0" speed="13.89" length="139.19" shape="-105.39,112.54 -98.73,142.21 -80.37,174.17 -44.13,195.54 -12.13,204.81"/>
        <lane id="R2_1" index="1" speed="13.89" length="139.19" shape="-102.26,111.84 -95.71,141.04 -78.02,171.84 -42.85,192.58 -11.24,201.74"/>
        <lane id="R2_2" index="2" speed="13.89" length="139.19" shape="-99.14,111.14 -92.70,139.87 -75.67,169.51 -41.57,189.62 -10.35,198.67"/>
    </edge>
    <edge id="R3" from="J2" to="J3" priority="2" shape="0.00,200.00 38.98,189.90 71.67,167.36 91.65,135.18 100.00,100.00">
        <lane id="R3_0" index="0" speed="13.89" length="137.76" shape="12.20,205.10 42.36,197.29 77.59,173.00 99.13,138.29 105.25,112.54"/>
        <lane id="R3_1" index="1" speed="13.89" length="137.76" shape="11.39,202.01 41.01,194.33 75.22,170.74 96.14,137.05 102.13,111.80"/>
        <lane id="R3_2" index="2" speed="13.89" length="137.76" shape="10.59,198.91 39.66,191.38 72.85,168.49 93.15,135.80 99.02,111.06"/>
    </edge>
    <edge id="R4" from="J3" to="J0" priority="2" shape="100.00,100.00 93.29,58.83 71.36,26.91 43.04,9.46 0.00,0.00">
        <lane id="R4_0" index="0" speed="13.89" length="141.08" shape="106.04,87.30 100.90,55.78 77.00,20.99 46.08,1.94 12.40,-5.47"/>
        <lane id="R4_1" index="1" speed="13.89" length="141.08" shape="102.88,87.82 97.85,57.00 74.74,23.36 44.87,4.95 11.71,-2.34"/>
        <lane id="R4_2" index="2" speed="13.89" length="141.08" shape="99.72,88.33 94.81,58.22 72.49,25.73 43.65,7.96 11.02,0.78"/>
    </edge>

    <tlLogic id="J0" type="static" programID="0" offset="0">
        <phase duration="110" state="OOOOOOOOOOOOOOOOOOOOOOOOOOOOOOOO"/>
    </tlLogic>

    <junction id="DE0" type="dead_end" x="0.00" y="-300.00" incLanes="-E0_0 -E0_1 -E0_2" intLanes="" shape="0.00,-300.00 9.60,-300.00 0.00,-300.00"/>
    <junction id="DE1" type="dead_end" x="-400.00" y="100.00" incLanes="-E1_0 -E1_1 -E1_2" intLanes="" shape="-400.00,100.00 -400.00,90.40 -400.00,100.00"/>
    <junction id="DE2" type="dead_end" x="0.00" y="500.00" incLanes="-E2_0 -E2_1 -E2_2" intLanes="" shape="0.00,500.00 -9.60,500.00 0.00,500.00"/>
    <junction id="DE3" type="dead_end" x="400.00" y="100.00" incLanes="-E3_0 -E3_1 -E3_2" intLanes="" shape="400.00,100.00 400.00,109.60 400.00,100.00"/>
    <junction id="J0" type="traffic_light" x="0.00" y="0.00" incLanes="E0_0 E0_1 E0_2 R4_0 R4_1 R4_2" intLanes=":J0_0_0 :J0_0_1 :J0_0_2 :J0_3_0 :J0_3_1 :J0_3_2 :J0_6_0 :J0_6_1" shape="-9.60,-10.94 9.60,-10.94 9.95,-9.07 10.39,-8.35 11.00,-7.77 11.78,-7.33 12.74,-7.03 10.68,2.35 6.26,1.40 2.92,0.84 0.13,0.67 -2.66,0.90 -5.98,1.54 -10.37,2.61 -12.72,-6.69 -10.99,-7.52 -10.38,-8.15 -9.95,-8.93 -9.69,-9.86">
        <request index="0" response="00000000" foes="00000000" cont="0"/>
        <request index="1" response="01000000" foes="01000000" cont="0"/>
        <request index="2" response="11000000" foes="11000000" cont="0"/>
        <request index="3" response="00000000" foes="00000000" cont="0"/>
        <request index="4" response="00000000" foes="00000000" cont="0"/>
        <request index="5" response="00000000" foes="00000000" cont="0"/>
        <request index="6" response="00000000" foes="00000110" cont="0"/>
        <request index="7" response="00000000" foes="00000100" cont="0"/>
    </junction>
    <junction id="J1" type="traffic_light" x="-100.00" y="100.00" incLanes="R1_0 R1_1 R1_2 E1_0 E1_1 E1_2" intLanes=":J1_0_0 :J1_0_1 :J1_0_2 :J1_3_0 :J1_3_1 :J1_5_0 :J1_5_1 :J1_5_2" shape="-107.53,87.07 -98.06,88.69 -98.84,93.36 -99.31,96.87 -99.43,99.78 -99.19,102.69 -98.58,106.17 -97.58,110.79 -106.95,112.89 -107.78,111.06 -108.45,110.42 -109.29,109.97 -110.29,109.69 -111.47,109.60 -111.47,90.40 -109.53,90.03 -108.80,89.57 -108.22,88.92 -107.79,88.09">
        <request index="0" response="00000000" foes="00000000" cont="0"/>
        <request index="1" response="00000000" foes="00000000" cont="0"/>
        <request index="2" response="00000000" foes="00000000" cont="0"/>
        <request index="3" response="00000000" foes="11000000" cont="0"/>
        <request index="4" response="00000000" foes="10000000" cont="0"/>
        <request index="5" response="00000000" foes="00000000" cont="0"/>
        <request index="6" response="00001000" foes="00001000" cont="0"/>
        <request index="7" response="00011000" foes="00011000" cont="0"/>
    </junction>
    <junction id="J2" type="traffic_light" x="0.00" y="200.00" incLanes="E2_0 E2_1 E2_2 R2_0 R2_1 R2_2" intLanes=":J2_0_0 :J2_0_1 :J2_0_2 :J2_3_0 :J2_3_1 :J2_3_2 :J2_6_0 :J2_6_1" shape="10.19,197.36 12.60,206.65 10.93,207.43 10.35,208.01 9.93,208.72 9.68,209.56 9.60,210.53 -9.60,210.53 -9.93,208.59 -10.34,207.83 -10.92,207.20 -11.66,206.71 -12.57,206.35 -9.90,197.13 -5.74,198.29 -2.57,198.99 0.12,199.24 2.80,199.04 5.99,198.41">
        <request index="0" response="00000000" foes="00000000" cont="0"/>
        <request index="1" response="01000000" foes="01000000" cont="0"/>
        <request index="2" response="11000000" foes="11000000" cont="0"/>
        <request index="3" response="00000000" foes="00000000" cont="0"/>
        <request index="4" response="00000000" foes="00000000" cont="0"/>
        <request index="5" response="00000000" foes="00000000" cont="0"/>
        <request index="6" response="00000000" foes="00000110" cont="0"/>
        <request index="7" response="00000000" foes="00000100" cont="0"/>
    </junction>
    <junction id="J3" type="traffic_light" x="100.00" y="100.00" incLanes="E3_0 E3_1 E3_2 R3_0 R3_1 R3_2" intLanes=":J3_0_0 :J3_0_1 :J3_0_2 :J3_3_0 :J3_3_1 :J3_3_2 :J3_6_0 :J3_6_1" shape="111.56,90.40 111.56,109.60 109.27,109.97 108.39,110.43 107.68,111.07 107.15,111.90 106.80,112.91 97.46,110.69 98.52,106.08 99.17,102.60 99.43,99.70 99.32,96.78 98.88,93.27 98.14,88.59 107.61,87.04 108.30,88.91 108.88,89.56 109.61,90.03 110.51,90.31">
        <request index="0" response="00000000" foes="00000000" cont="0"/>
        <request index="1" response="01000000" foes="01000000" cont="0"/>
        <request index="2" response="11000000" foes="11000000" cont="0"/>
        <request index="3" response="00000000" foes="00000000" cont="0"/>
        <request index="4" response="00000000" foes="00000000" cont="0"/>
        <request index="5" response="00000000" foes="00000000" cont="0"/>
        <request index="6" response="00000000" foes="00000110" cont="0"/>
        <request index="7" response="00000000" foes="00000100" cont="0"/>
    </junction>

    <connection from="E0" to="R1" fromLane="0" toLane="0" via=":J0_0_0" tl="J0" linkIndex="0" dir="l" state="O"/>
    <connection from="E0" to="R1" fromLane="1" toLane="1" via=":J0_0_1" tl="J0" linkIndex="1" dir="l" state="o"/>
    <connection from="E0" to="R1" fromLane="2" toLane="2" via=":J0_0_2" tl="J0" linkIndex="2" dir="l" state="o"/>
    <connection from="E1" to="R2" fromLane="0" toLane="0" via=":J1_5_0" tl="J0" linkIndex="13" dir="l" state="O"/>
    <connection from="E1" to="R2" fromLane="1" toLane="1" via=":J1_5_1" tl="J0" linkIndex="14" dir="l" state="o"/>
    <connection from="E1" to="R2" fromLane="2" toLane="2" via=":J1_5_2" tl="J0" linkIndex="15" dir="l" state="o"/>
    <connection from="E2" to="R3" fromLane="0" toLane="0" via=":J2_0_0" tl="J0" linkIndex="16" dir="l" state="O"/>
    <connection from="E2" to="R3" fromLane="1" toLane="1" via=":J2_0_1" tl="J0" linkIndex="17" dir="l" state="o"/>
    <connection from="E2" to="R3" fromLane="2" toLane="2" via=":J2_0_2" tl="J0" linkIndex="18" dir="l" state="o"/>
    <connection from="E3" to="R4" fromLane="0" toLane="0" via=":J3_0_0" tl="J0" linkIndex="24" dir="l" state="O"/>
    <connection from="E3" to="R4" fromLane="1" toLane="1" via=":J3_0_1" tl="J0" linkIndex="25" dir="l" state="o"/>
    <connection from="E3" to="R4" fromLane="2" toLane="2" via=":J3_0_2" tl="J0" linkIndex="26" dir="l" state="o"/>
    <connection from="R1" to="-E1" fromLane="0" toLane="0" via=":J1_0_0" tl="J0" linkIndex="8" dir="l" state="O"/>
    <connection from="R1" to="-E1" fromLane="1" toLane="1" via=":J1_0_1" tl="J0" linkIndex="9" dir="l" state="O"/>
    <connection from="R1" to="-E1" fromLane="1" toLane="2" via=":J1_0_2" tl="J0" linkIndex="10" dir="l" state="O"/>
    <connection from="R1" to="R2" fromLane="1" toLane="1" via=":J1_3_0" tl="J0" linkIndex="11" dir="s" state="O"/>
    <connection from="R1" to="R2" fromLane="2" toLane="2" via=":J1_3_1" tl="J0" linkIndex="12" dir="s" state="O"/>
    <connection from="R2" to="-E2" fromLane="0" toLane="0" via=":J2_3_0" tl="J0" linkIndex="19" dir="l" state="O"/>
    <connection from="R2" to="-E2" fromLane="1" toLane="1" via=":J2_3_1" tl="J0" linkIndex="20" dir="l" state="O"/>
    <connection from="R2" to="-E2" fromLane="1" toLane="2" via=":J2_3_2" tl="J0" linkIndex="21" dir="l" state="O"/>
    <connection from="R2" to="R3" fromLane="1" toLane="1" via=":J2_6_0" tl="J0" linkIndex="22" dir="s" state="O"/>
    <connection from="R2" to="R3" fromLane="2" toLane="2" via=":J2_6_1" tl="J0" linkIndex="23" dir="s" state="O"/>
    <connection from="R3" to="-E3" fromLane="0" toLane="0" via=":J3_3_0" tl="J0" linkIndex="27" dir="l" state="O"/>
    <connection from="R3" to="-E3" fromLane="1" toLane="1" via=":J3_3_1" tl="J0" linkIndex="28" dir="l" state="O"/>
    <connection from="R3" to="-E3" fromLane="1" toLane="2" via=":J3_3_2" tl="J0" linkIndex="29" dir="l" state="O"/>
    <connection from="R3" to="R4" fromLane="1" toLane="1" via=":J3_6_0" tl="J0" linkIndex="30" dir="s" state="O"/>
    <connection from="R3" to="R4" fromLane="2" toLane="2" via=":J3_6_1" tl="J0" linkIndex="31" dir="s" state="O"/>
    <connection from="R4" to="-E0" fromLane="0" toLane="0" via=":J0_3_0" tl="J0" linkIndex="3" dir="l" state="O"/>
    <connection from="R4" to="-E0" fromLane="1" toLane="1" via=":J0_3_1" tl="J0" linkIndex="4" dir="l" state="O"/>
    <connection from="R4" to="-E0" fromLane="1" toLane="2" via=":J0_3_2" tl="J0" linkIndex="5" dir="l" state="O"/>
    <connection from="R4" to="R1" fromLane="1" toLane="1" via=":J0_6_0" tl="J0" linkIndex="6" dir="s" state="O"/>
    <connection from="R4" to="R1" fromLane="2" toLane="2" via=":J0_6_1" tl="J0" linkIndex="7" dir="s" state="O"/>

    <connection from=":J0_0" to="R1" fromLane="0" toLane="0" dir="l" state="M"/>
    <connection from=":J0_0" to="R1" fromLane="1" toLane="1" dir="l" state="M"/>
    <connection from=":J0_0" to="R1" fromLane="2" toLane="2" dir="l" state="M"/>
    <connection from=":J0_3" to="-E0" fromLane="0" toLane="0" dir="l" state="M"/>
    <connection from=":J0_3" to="-E0" fromLane="1" toLane="1" dir="l" state="M"/>
    <connection from=":J0_3" to="-E0" fromLane="2" toLane="2" dir="l" state="M"/>
    <connection from=":J0_6" to="R1" fromLane="0" toLane="1" dir="s" state="M"/>
    <connection from=":J0_6" to="R1" fromLane="1" toLane="2" dir="s" state="M"/>
    <connection from=":J1_0" to="-E1" fromLane="0" toLane="0" dir="l" state="M"/>
    <connection from=":J1_0" to="-E1" fromLane="1" toLane="1" dir="l" state="M"/>
    <connection from=":J1_0" to="-E1" fromLane="2" toLane="2" dir="l" state="M"/>
    <connection from=":J1_3" to="R2" fromLane="0" toLane="1" dir="s" state="M"/>
    <connection from=":J1_3" to="R2" fromLane="1" toLane="2" dir="s" state="M"/>
    <connection from=":J1_5" to="R2" fromLane="0" toLane="0" dir="l" state="M"/>
    <connection from=":J1_5" to="R2" fromLane="1" toLane="1" dir="l" state="M"/>
    <connection from=":J1_5" to="R2" fromLane="2" toLane="2" dir="l" state="M"/>
    <connection from=":J2_0" to="R3" fromLane="0" toLane="0" dir="l" state="M"/>
    <connection from=":J2_0" to="R3" fromLane="1" toLane="1" dir="l" state="M"/>
    <connection from=":J2_0" to="R3" fromLane="2" toLane="2" dir="l" state="M"/>
    <connection from=":J2_3" to="-E2" fromLane="0" toLane="0" dir="l" state="M"/>
    <connection from=":J2_3" to="-E2" fromLane="1" toLane="1" dir="l" state="M"/>
    <connection from=":J2_3" to="-E2" fromLane="2" toLane="2" dir="l" state="M"/>
    <connection from=":J2_6" to="R3" fromLane="0" toLane="1" dir="s" state="M"/>
    <connection from=":J2_6" to="R3" fromLane="1" toLane="2" dir="s" state="M"/>
    <connection from=":J3_0" to="R4" fromLane="0" toLane="0" dir="l" state="M"/>
    <connection from=":J3_0" to="R4" fromLane="1" toLane="1" dir="l" state="M"/>
    <connection from=":J3_0" to="R4" fromLane="2" toLane="2" dir="l" state="M"/>
    <connection from=":J3_3" to="-E3" fromLane="0" toLane="0" dir="l" state="M"/>
    <connection from=":J3_3" to="-E3" fromLane="1" toLane="1" dir="l" state="M"/>
    <connection from=":J3_3" to="-E3" fromLane="2" toLane="2" dir="l" state="M"/>
    <connection from=":J3_6" to="R4" fromLane="0" toLane="1" dir="s" state="M"/>
    <connection from=":J3_6" to="R4" fromLane="1" toLane="2" dir="s" state="M"/>

    <roundabout nodes="J0 J1 J2 J3" edges="R1 R2 R3 R4"/>

</net>
