<?xml version="1.0" encoding="UTF-8"?>

<!-- generated on 2023-07-16 11:50:25.873026 by randomTrips.py UNKNOWN
<configuration>
    <net-file value="../net/subang_rltl_roundabout.net.xml"/>
    <end value="100000.0"/>
    <fringe-factor value="max"/>
    <binomial value="6"/>
    <period value="2.0"/>
</configuration>
-->

<routes xmlns:xsi="http://www.w3.org/2001/XMLSchema-instance" xsi:noNamespaceSchemaLocation="http://sumo.dlr.de/xsd/routes_file.xsd">
    <trip id="0" depart="0.00" from="edge1_1" to="-edge0_2"/>
    <trip id="1" depart="1.00" from="edge0_1" to="-edge2"/>
    <trip id="2" depart="1.00" from="edge0_1" to="-edge2"/>
    <trip id="3" depart="2.00" from="edge3_1" to="-edge2"/>
    <trip id="4" depart="5.00" from="edge0_1" to="-edge1_3"/>
    <trip id="5" depart="5.00" from="edge0_1" to="-edge0_2"/>
    <trip id="6" depart="9.00" from="edge1_1" to="-edge1_3"/>
    <trip id="7" depart="12.00" from="edge0_1" to="-edge2"/>
    <trip id="8" depart="13.00" from="edge1_1" to="-edge3_2"/>
    <trip id="9" depart="13.00" from="edge2_1" to="-edge2"/>
    <trip id="10" depart="17.00" from="edge1_1" to="-edge0_2"/>
    <trip id="11" depart="18.00" from="edge3_1" to="-edge3_2"/>
    <trip id="12" depart="18.00" from="edge3_1" to="-edge3_2"/>
    <trip id="13" depart="22.00" from="edge2_1" to="-edge0_2"/>
    <trip id="14" depart="22.00" from="edge0_1" to="-edge2"/>
    <trip id="15" depart="27.00" from="edge3_1" to="-edge3_2"/>
    <trip id="16" depart="29.00" from="edge1_1" to="-edge3_2"/>
    <trip id="17" depart="31.00" from="edge2_1" to="-edge2"/>
    <trip id="18" depart="32.00" from="edge0_1" to="-edge2"/>
    <trip id="19" depart="35.00" from="edge1_1" to="-edge3_2"/>
    <trip id="20" depart="36.00" from="edge0_1" to="-edge1_3"/>
    <trip id="21" depart="37.00" from="edge3_1" to="-edge1_3"/>
    <trip id="22" depart="41.00" from="edge3_1" to="-edge2"/>
    <trip id="23" depart="41.00" from="edge0_1" to="-edge3_2"/>
    <trip id="24" depart="46.00" from="edge2_1" to="-edge1_3"/>
    <trip id="25" depart="48.00" from="edge0_1" to="-edge1_3"/>
    <trip id="26" depart="52.00" from="edge3_1" to="-edge2"/>
    <trip id="27" depart="53.00" from="edge2_1" to="-edge1_3"/>
    <trip id="28" depart="56.00" from="edge1_1" to="-edge1_3"/>
    <trip id="29" depart="59.00" from="edge0_1" to="-edge1_3"/>
    <trip id="30" depart="59.00" from="edge1_1" to="-edge2"/>
    <trip id="31" depart="60.00" from="edge3_1" to="-edge3_2"/>
    <trip id="32" depart="61.00" from="edge0_1" to="-edge3_2"/>
    <trip id="33" depart="65.00" from="edge1_1" to="-edge1_3"/>
    <trip id="34" depart="66.00" from="edge1_1" to="-edge2"/>
    <trip id="35" depart="68.00" from="edge1_1" to="-edge3_2"/>
    <trip id="36" depart="70.00" from="edge1_1" to="-edge2"/>
    <trip id="37" depart="71.00" from="edge1_1" to="-edge2"/>
    <trip id="38" depart="71.00" from="edge2_1" to="-edge0_2"/>
    <trip id="39" depart="71.00" from="edge1_1" to="-edge0_2"/>
    <trip id="40" depart="72.00" from="edge0_1" to="-edge2"/>
    <trip id="41" depart="74.00" from="edge0_1" to="-edge0_2"/>
    <trip id="42" depart="76.00" from="edge1_1" to="-edge2"/>
    <trip id="43" depart="77.00" from="edge2_1" to="-edge2"/>
    <trip id="44" depart="83.00" from="edge3_1" to="-edge0_2"/>
    <trip id="45" depart="84.00" from="edge3_1" to="-edge0_2"/>
    <trip id="46" depart="90.00" from="edge2_1" to="-edge1_3"/>
    <trip id="47" depart="92.00" from="edge3_1" to="-edge1_3"/>
    <trip id="48" depart="93.00" from="edge2_1" to="-edge0_2"/>
    <trip id="49" depart="97.00" from="edge0_1" to="-edge1_3"/>
    <trip id="50" depart="100.00" from="edge0_1" to="-edge1_3"/>
    <trip id="51" depart="102.00" from="edge0_1" to="-edge1_3"/>
    <trip id="52" depart="104.00" from="edge3_1" to="-edge1_3"/>
    <trip id="53" depart="118.00" from="edge2_1" to="-edge2"/>
    <trip id="54" depart="119.00" from="edge2_1" to="-edge2"/>
    <trip id="55" depart="123.00" from="edge0_1" to="-edge2"/>
    <trip id="56" depart="125.00" from="edge3_1" to="-edge1_3"/>
    <trip id="57" depart="126.00" from="edge3_1" to="-edge2"/>
    <trip id="58" depart="127.00" from="edge3_1" to="-edge3_2"/>
    <trip id="59" depart="131.00" from="edge2_1" to="-edge1_3"/>
    <trip id="60" depart="139.00" from="edge2_1" to="-edge1_3"/>
    <trip id="61" depart="140.00" from="edge3_1" to="-edge2"/>
    <trip id="62" depart="141.00" from="edge3_1" to="-edge3_2"/>
    <trip id="63" depart="144.00" from="edge1_1" to="-edge1_3"/>
    <trip id="64" depart="147.00" from="edge3_1" to="-edge0_2"/>
    <trip id="65" depart="148.00" from="edge3_1" to="-edge0_2"/>
    <trip id="66" depart="149.00" from="edge3_1" to="-edge0_2"/>
    <trip id="67" depart="149.00" from="edge0_1" to="-edge3_2"/>
    <trip id="68" depart="150.00" from="edge2_1" to="-edge2"/>
    <trip id="69" depart="151.00" from="edge3_1" to="-edge3_2"/>
    <trip id="70" depart="152.00" from="edge1_1" to="-edge1_3"/>
    <trip id="71" depart="153.00" from="edge0_1" to="-edge2"/>
    <trip id="72" depart="153.00" from="edge1_1" to="-edge2"/>
    <trip id="73" depart="157.00" from="edge3_1" to="-edge0_2"/>
    <trip id="74" depart="162.00" from="edge3_1" to="-edge3_2"/>
    <trip id="75" depart="163.00" from="edge3_1" to="-edge2"/>
    <trip id="76" depart="164.00" from="edge2_1" to="-edge0_2"/>
    <trip id="77" depart="165.00" from="edge0_1" to="-edge2"/>
    <trip id="78" depart="168.00" from="edge1_1" to="-edge2"/>
    <trip id="79" depart="168.00" from="edge1_1" to="-edge0_2"/>
    <trip id="80" depart="169.00" from="edge2_1" to="-edge0_2"/>
    <trip id="81" depart="170.00" from="edge3_1" to="-edge0_2"/>
    <trip id="82" depart="170.00" from="edge3_1" to="-edge3_2"/>
    <trip id="83" depart="171.00" from="edge1_1" to="-edge3_2"/>
    <trip id="84" depart="178.00" from="edge1_1" to="-edge1_3"/>
    <trip id="85" depart="178.00" from="edge2_1" to="-edge1_3"/>
    <trip id="86" depart="178.00" from="edge3_1" to="-edge0_2"/>
    <trip id="87" depart="181.00" from="edge0_1" to="-edge3_2"/>
    <trip id="88" depart="184.00" from="edge0_1" to="-edge2"/>
    <trip id="89" depart="189.00" from="edge3_1" to="-edge0_2"/>
    <trip id="90" depart="190.00" from="edge1_1" to="-edge3_2"/>
    <trip id="91" depart="198.00" from="edge0_1" to="-edge2"/>
    <trip id="92" depart="199.00" from="edge3_1" to="-edge3_2"/>
    <trip id="93" depart="200.00" from="edge0_1" to="-edge1_3"/>
    <trip id="94" depart="202.00" from="edge1_1" to="-edge3_2"/>
    <trip id="95" depart="203.00" from="edge2_1" to="-edge0_2"/>
    <trip id="96" depart="204.00" from="edge2_1" to="-edge2"/>
    <trip id="97" depart="205.00" from="edge3_1" to="-edge1_3"/>
    <trip id="98" depart="206.00" from="edge2_1" to="-edge3_2"/>
    <trip id="99" depart="208.00" from="edge3_1" to="-edge1_3"/>
    <trip id="100" depart="208.00" from="edge0_1" to="-edge0_2"/>
    <trip id="101" depart="212.00" from="edge2_1" to="-edge3_2"/>
    <trip id="102" depart="213.00" from="edge2_1" to="-edge1_3"/>
    <trip id="103" depart="213.00" from="edge3_1" to="-edge1_3"/>
    <trip id="104" depart="214.00" from="edge2_1" to="-edge1_3"/>
    <trip id="105" depart="215.00" from="edge0_1" to="-edge3_2"/>
    <trip id="106" depart="221.00" from="edge2_1" to="-edge3_2"/>
    <trip id="107" depart="223.00" from="edge2_1" to="-edge1_3"/>
    <trip id="108" depart="225.00" from="edge3_1" to="-edge2"/>
    <trip id="109" depart="227.00" from="edge0_1" to="-edge0_2"/>
    <trip id="110" depart="231.00" from="edge0_1" to="-edge2"/>
    <trip id="111" depart="233.00" from="edge0_1" to="-edge1_3"/>
    <trip id="112" depart="238.00" from="edge3_1" to="-edge2"/>
    <trip id="113" depart="239.00" from="edge1_1" to="-edge3_2"/>
    <trip id="114" depart="241.00" from="edge2_1" to="-edge3_2"/>
    <trip id="115" depart="244.00" from="edge0_1" to="-edge1_3"/>
    <trip id="116" depart="248.00" from="edge1_1" to="-edge3_2"/>
    <trip id="117" depart="250.00" from="edge3_1" to="-edge0_2"/>
    <trip id="118" depart="250.00" from="edge1_1" to="-edge0_2"/>
    <trip id="119" depart="251.00" from="edge0_1" to="-edge0_2"/>
    <trip id="120" depart="260.00" from="edge1_1" to="-edge2"/>
    <trip id="121" depart="260.00" from="edge2_1" to="-edge3_2"/>
    <trip id="122" depart="265.00" from="edge2_1" to="-edge0_2"/>
    <trip id="123" depart="271.00" from="edge2_1" to="-edge2"/>
    <trip id="124" depart="271.00" from="edge0_1" to="-edge1_3"/>
    <trip id="125" depart="275.00" from="edge1_1" to="-edge2"/>
    <trip id="126" depart="275.00" from="edge2_1" to="-edge0_2"/>
    <trip id="127" depart="278.00" from="edge1_1" to="-edge3_2"/>
    <trip id="128" depart="279.00" from="edge1_1" to="-edge0_2"/>
    <trip id="129" depart="279.00" from="edge3_1" to="-edge0_2"/>
    <trip id="130" depart="283.00" from="edge0_1" to="-edge1_3"/>
    <trip id="131" depart="286.00" from="edge0_1" to="-edge0_2"/>
    <trip id="132" depart="286.00" from="edge2_1" to="-edge2"/>
    <trip id="133" depart="286.00" from="edge2_1" to="-edge1_3"/>
    <trip id="134" depart="287.00" from="edge2_1" to="-edge1_3"/>
    <trip id="135" depart="289.00" from="edge3_1" to="-edge3_2"/>
    <trip id="136" depart="296.00" from="edge3_1" to="-edge3_2"/>
    <trip id="137" depart="304.00" from="edge0_1" to="-edge3_2"/>
    <trip id="138" depart="306.00" from="edge2_1" to="-edge1_3"/>
    <trip id="139" depart="307.00" from="edge2_1" to="-edge0_2"/>
    <trip id="140" depart="307.00" from="edge3_1" to="-edge2"/>
    <trip id="141" depart="311.00" from="edge0_1" to="-edge0_2"/>
    <trip id="142" depart="313.00" from="edge0_1" to="-edge3_2"/>
    <trip id="143" depart="313.00" from="edge0_1" to="-edge3_2"/>
    <trip id="144" depart="314.00" from="edge3_1" to="-edge1_3"/>
    <trip id="145" depart="315.00" from="edge0_1" to="-edge0_2"/>
    <trip id="146" depart="316.00" from="edge1_1" to="-edge3_2"/>
    <trip id="147" depart="317.00" from="edge1_1" to="-edge3_2"/>
    <trip id="148" depart="319.00" from="edge0_1" to="-edge2"/>
    <trip id="149" depart="320.00" from="edge1_1" to="-edge1_3"/>
    <trip id="150" depart="321.00" from="edge1_1" to="-edge0_2"/>
    <trip id="151" depart="324.00" from="edge1_1" to="-edge1_3"/>
    <trip id="152" depart="324.00" from="edge1_1" to="-edge0_2"/>
    <trip id="153" depart="333.00" from="edge3_1" to="-edge1_3"/>
    <trip id="154" depart="335.00" from="edge3_1" to="-edge2"/>
    <trip id="155" depart="336.00" from="edge1_1" to="-edge2"/>
    <trip id="156" depart="338.00" from="edge0_1" to="-edge1_3"/>
    <trip id="157" depart="343.00" from="edge2_1" to="-edge0_2"/>
    <trip id="158" depart="344.00" from="edge0_1" to="-edge3_2"/>
    <trip id="159" depart="351.00" from="edge1_1" to="-edge0_2"/>
    <trip id="160" depart="352.00" from="edge0_1" to="-edge3_2"/>
    <trip id="161" depart="355.00" from="edge2_1" to="-edge2"/>
    <trip id="162" depart="359.00" from="edge1_1" to="-edge1_3"/>
    <trip id="163" depart="365.00" from="edge3_1" to="-edge2"/>
    <trip id="164" depart="365.00" from="edge2_1" to="-edge0_2"/>
    <trip id="165" depart="367.00" from="edge0_1" to="-edge3_2"/>
    <trip id="166" depart="368.00" from="edge3_1" to="-edge0_2"/>
    <trip id="167" depart="371.00" from="edge1_1" to="-edge0_2"/>
    <trip id="168" depart="372.00" from="edge2_1" to="-edge3_2"/>
    <trip id="169" depart="372.00" from="edge1_1" to="-edge2"/>
    <trip id="170" depart="374.00" from="edge2_1" to="-edge1_3"/>
    <trip id="171" depart="379.00" from="edge3_1" to="-edge3_2"/>
    <trip id="172" depart="382.00" from="edge0_1" to="-edge1_3"/>
    <trip id="173" depart="382.00" from="edge0_1" to="-edge3_2"/>
    <trip id="174" depart="383.00" from="edge2_1" to="-edge2"/>
    <trip id="175" depart="385.00" from="edge2_1" to="-edge2"/>
    <trip id="176" depart="385.00" from="edge0_1" to="-edge1_3"/>
    <trip id="177" depart="388.00" from="edge3_1" to="-edge1_3"/>
    <trip id="178" depart="389.00" from="edge2_1" to="-edge2"/>
    <trip id="179" depart="389.00" from="edge1_1" to="-edge1_3"/>
    <trip id="180" depart="390.00" from="edge3_1" to="-edge0_2"/>
    <trip id="181" depart="393.00" from="edge1_1" to="-edge2"/>
    <trip id="182" depart="394.00" from="edge1_1" to="-edge1_3"/>
    <trip id="183" depart="394.00" from="edge0_1" to="-edge2"/>
    <trip id="184" depart="396.00" from="edge1_1" to="-edge0_2"/>
    <trip id="185" depart="397.00" from="edge2_1" to="-edge3_2"/>
    <trip id="186" depart="398.00" from="edge3_1" to="-edge2"/>
    <trip id="187" depart="400.00" from="edge2_1" to="-edge1_3"/>
    <trip id="188" depart="402.00" from="edge0_1" to="-edge3_2"/>
    <trip id="189" depart="404.00" from="edge3_1" to="-edge1_3"/>
    <trip id="190" depart="406.00" from="edge1_1" to="-edge1_3"/>
    <trip id="191" depart="407.00" from="edge3_1" to="-edge3_2"/>
    <trip id="192" depart="408.00" from="edge0_1" to="-edge3_2"/>
    <trip id="193" depart="409.00" from="edge1_1" to="-edge0_2"/>
    <trip id="194" depart="410.00" from="edge2_1" to="-edge0_2"/>
    <trip id="195" depart="411.00" from="edge2_1" to="-edge0_2"/>
    <trip id="196" depart="411.00" from="edge1_1" to="-edge0_2"/>
    <trip id="197" depart="415.00" from="edge3_1" to="-edge2"/>
    <trip id="198" depart="416.00" from="edge3_1" to="-edge0_2"/>
    <trip id="199" depart="418.00" from="edge2_1" to="-edge3_2"/>
    <trip id="200" depart="420.00" from="edge3_1" to="-edge0_2"/>
    <trip id="201" depart="421.00" from="edge2_1" to="-edge3_2"/>
    <trip id="202" depart="427.00" from="edge2_1" to="-edge3_2"/>
    <trip id="203" depart="430.00" from="edge1_1" to="-edge0_2"/>
    <trip id="204" depart="430.00" from="edge1_1" to="-edge2"/>
    <trip id="205" depart="432.00" from="edge3_1" to="-edge1_3"/>
    <trip id="206" depart="432.00" from="edge0_1" to="-edge1_3"/>
    <trip id="207" depart="434.00" from="edge3_1" to="-edge0_2"/>
    <trip id="208" depart="436.00" from="edge2_1" to="-edge3_2"/>
    <trip id="209" depart="437.00" from="edge0_1" to="-edge1_3"/>
    <trip id="210" depart="437.00" from="edge3_1" to="-edge1_3"/>
    <trip id="211" depart="440.00" from="edge3_1" to="-edge2"/>
    <trip id="212" depart="442.00" from="edge3_1" to="-edge2"/>
    <trip id="213" depart="446.00" from="edge1_1" to="-edge1_3"/>
    <trip id="214" depart="450.00" from="edge1_1" to="-edge0_2"/>
    <trip id="215" depart="450.00" from="edge3_1" to="-edge1_3"/>
    <trip id="216" depart="451.00" from="edge3_1" to="-edge1_3"/>
    <trip id="217" depart="456.00" from="edge0_1" to="-edge3_2"/>
    <trip id="218" depart="457.00" from="edge1_1" to="-edge2"/>
    <trip id="219" depart="461.00" from="edge3_1" to="-edge3_2"/>
    <trip id="220" depart="461.00" from="edge3_1" to="-edge2"/>
    <trip id="221" depart="461.00" from="edge1_1" to="-edge3_2"/>
    <trip id="222" depart="465.00" from="edge3_1" to="-edge2"/>
    <trip id="223" depart="468.00" from="edge2_1" to="-edge2"/>
    <trip id="224" depart="474.00" from="edge3_1" to="-edge2"/>
    <trip id="225" depart="474.00" from="edge3_1" to="-edge0_2"/>
    <trip id="226" depart="476.00" from="edge1_1" to="-edge3_2"/>
    <trip id="227" depart="478.00" from="edge0_1" to="-edge1_3"/>
    <trip id="228" depart="478.00" from="edge1_1" to="-edge3_2"/>
    <trip id="229" depart="484.00" from="edge3_1" to="-edge1_3"/>
    <trip id="230" depart="484.00" from="edge3_1" to="-edge2"/>
    <trip id="231" depart="485.00" from="edge2_1" to="-edge1_3"/>
    <trip id="232" depart="489.00" from="edge1_1" to="-edge0_2"/>
    <trip id="233" depart="490.00" from="edge2_1" to="-edge3_2"/>
    <trip id="234" depart="492.00" from="edge1_1" to="-edge3_2"/>
    <trip id="235" depart="493.00" from="edge3_1" to="-edge2"/>
    <trip id="236" depart="496.00" from="edge3_1" to="-edge0_2"/>
    <trip id="237" depart="497.00" from="edge2_1" to="-edge3_2"/>
    <trip id="238" depart="498.00" from="edge1_1" to="-edge1_3"/>
    <trip id="239" depart="502.00" from="edge2_1" to="-edge0_2"/>
    <trip id="240" depart="502.00" from="edge1_1" to="-edge0_2"/>
    <trip id="241" depart="503.00" from="edge0_1" to="-edge2"/>
    <trip id="242" depart="505.00" from="edge0_1" to="-edge2"/>
    <trip id="243" depart="506.00" from="edge0_1" to="-edge1_3"/>
    <trip id="244" depart="509.00" from="edge0_1" to="-edge0_2"/>
    <trip id="245" depart="513.00" from="edge3_1" to="-edge3_2"/>
    <trip id="246" depart="522.00" from="edge0_1" to="-edge2"/>
    <trip id="247" depart="523.00" from="edge3_1" to="-edge0_2"/>
    <trip id="248" depart="526.00" from="edge1_1" to="-edge2"/>
    <trip id="249" depart="531.00" from="edge3_1" to="-edge2"/>
    <trip id="250" depart="532.00" from="edge2_1" to="-edge1_3"/>
    <trip id="251" depart="535.00" from="edge2_1" to="-edge1_3"/>
    <trip id="252" depart="537.00" from="edge3_1" to="-edge0_2"/>
    <trip id="253" depart="538.00" from="edge0_1" to="-edge2"/>
    <trip id="254" depart="541.00" from="edge3_1" to="-edge2"/>
    <trip id="255" depart="542.00" from="edge2_1" to="-edge2"/>
    <trip id="256" depart="543.00" from="edge3_1" to="-edge0_2"/>
    <trip id="257" depart="547.00" from="edge2_1" to="-edge2"/>
    <trip id="258" depart="551.00" from="edge0_1" to="-edge2"/>
    <trip id="259" depart="554.00" from="edge0_1" to="-edge0_2"/>
    <trip id="260" depart="557.00" from="edge0_1" to="-edge0_2"/>
    <trip id="261" depart="557.00" from="edge2_1" to="-edge1_3"/>
    <trip id="262" depart="563.00" from="edge1_1" to="-edge0_2"/>
    <trip id="263" depart="564.00" from="edge3_1" to="-edge1_3"/>
    <trip id="264" depart="568.00" from="edge2_1" to="-edge0_2"/>
    <trip id="265" depart="570.00" from="edge0_1" to="-edge2"/>
    <trip id="266" depart="571.00" from="edge2_1" to="-edge0_2"/>
    <trip id="267" depart="572.00" from="edge2_1" to="-edge2"/>
    <trip id="268" depart="576.00" from="edge3_1" to="-edge2"/>
    <trip id="269" depart="578.00" from="edge2_1" to="-edge0_2"/>
    <trip id="270" depart="582.00" from="edge2_1" to="-edge2"/>
    <trip id="271" depart="588.00" from="edge0_1" to="-edge0_2"/>
    <trip id="272" depart="588.00" from="edge0_1" to="-edge0_2"/>
    <trip id="273" depart="588.00" from="edge1_1" to="-edge3_2"/>
    <trip id="274" depart="591.00" from="edge2_1" to="-edge2"/>
    <trip id="275" depart="591.00" from="edge0_1" to="-edge0_2"/>
    <trip id="276" depart="593.00" from="edge0_1" to="-edge1_3"/>
    <trip id="277" depart="595.00" from="edge1_1" to="-edge3_2"/>
    <trip id="278" depart="597.00" from="edge0_1" to="-edge0_2"/>
    <trip id="279" depart="599.00" from="edge3_1" to="-edge0_2"/>
    <trip id="280" depart="599.00" from="edge3_1" to="-edge1_3"/>
    <trip id="281" depart="603.00" from="edge1_1" to="-edge2"/>
    <trip id="282" depart="605.00" from="edge3_1" to="-edge1_3"/>
    <trip id="283" depart="607.00" from="edge0_1" to="-edge2"/>
    <trip id="284" depart="613.00" from="edge3_1" to="-edge1_3"/>
    <trip id="285" depart="615.00" from="edge0_1" to="-edge3_2"/>
    <trip id="286" depart="618.00" from="edge0_1" to="-edge0_2"/>
    <trip id="287" depart="620.00" from="edge2_1" to="-edge2"/>
    <trip id="288" depart="621.00" from="edge0_1" to="-edge0_2"/>
    <trip id="289" depart="621.00" from="edge3_1" to="-edge2"/>
    <trip id="290" depart="621.00" from="edge1_1" to="-edge3_2"/>
    <trip id="291" depart="621.00" from="edge1_1" to="-edge0_2"/>
    <trip id="292" depart="623.00" from="edge2_1" to="-edge3_2"/>
    <trip id="293" depart="627.00" from="edge3_1" to="-edge3_2"/>
    <trip id="294" depart="627.00" from="edge3_1" to="-edge3_2"/>
    <trip id="295" depart="628.00" from="edge1_1" to="-edge1_3"/>
    <trip id="296" depart="628.00" from="edge1_1" to="-edge1_3"/>
    <trip id="297" depart="632.00" from="edge0_1" to="-edge2"/>
    <trip id="298" depart="635.00" from="edge3_1" to="-edge0_2"/>
    <trip id="299" depart="637.00" from="edge1_1" to="-edge3_2"/>
    <trip id="300" depart="639.00" from="edge3_1" to="-edge2"/>
    <trip id="301" depart="641.00" from="edge0_1" to="-edge3_2"/>
    <trip id="302" depart="643.00" from="edge2_1" to="-edge2"/>
    <trip id="303" depart="647.00" from="edge0_1" to="-edge1_3"/>
    <trip id="304" depart="648.00" from="edge2_1" to="-edge1_3"/>
    <trip id="305" depart="648.00" from="edge3_1" to="-edge3_2"/>
    <trip id="306" depart="650.00" from="edge3_1" to="-edge0_2"/>
    <trip id="307" depart="653.00" from="edge3_1" to="-edge0_2"/>
    <trip id="308" depart="653.00" from="edge3_1" to="-edge0_2"/>
    <trip id="309" depart="654.00" from="edge0_1" to="-edge1_3"/>
    <trip id="310" depart="663.00" from="edge3_1" to="-edge2"/>
    <trip id="311" depart="664.00" from="edge1_1" to="-edge0_2"/>
    <trip id="312" depart="667.00" from="edge0_1" to="-edge3_2"/>
    <trip id="313" depart="669.00" from="edge3_1" to="-edge1_3"/>
    <trip id="314" depart="669.00" from="edge2_1" to="-edge0_2"/>
    <trip id="315" depart="670.00" from="edge2_1" to="-edge1_3"/>
    <trip id="316" depart="671.00" from="edge2_1" to="-edge0_2"/>
    <trip id="317" depart="673.00" from="edge3_1" to="-edge1_3"/>
    <trip id="318" depart="675.00" from="edge1_1" to="-edge3_2"/>
    <trip id="319" depart="676.00" from="edge3_1" to="-edge0_2"/>
    <trip id="320" depart="676.00" from="edge3_1" to="-edge3_2"/>
    <trip id="321" depart="677.00" from="edge2_1" to="-edge0_2"/>
    <trip id="322" depart="677.00" from="edge0_1" to="-edge2"/>
    <trip id="323" depart="679.00" from="edge2_1" to="-edge2"/>
    <trip id="324" depart="679.00" from="edge0_1" to="-edge1_3"/>
    <trip id="325" depart="679.00" from="edge2_1" to="-edge0_2"/>
    <trip id="326" depart="680.00" from="edge3_1" to="-edge2"/>
    <trip id="327" depart="682.00" from="edge0_1" to="-edge2"/>
    <trip id="328" depart="685.00" from="edge2_1" to="-edge1_3"/>
    <trip id="329" depart="696.00" from="edge3_1" to="-edge0_2"/>
    <trip id="330" depart="697.00" from="edge3_1" to="-edge3_2"/>
    <trip id="331" depart="698.00" from="edge2_1" to="-edge1_3"/>
    <trip id="332" depart="700.00" from="edge3_1" to="-edge2"/>
    <trip id="333" depart="701.00" from="edge1_1" to="-edge1_3"/>
    <trip id="334" depart="702.00" from="edge2_1" to="-edge0_2"/>
    <trip id="335" depart="711.00" from="edge3_1" to="-edge0_2"/>
    <trip id="336" depart="711.00" from="edge2_1" to="-edge0_2"/>
    <trip id="337" depart="712.00" from="edge0_1" to="-edge2"/>
    <trip id="338" depart="712.00" from="edge3_1" to="-edge2"/>
    <trip id="339" depart="713.00" from="edge1_1" to="-edge0_2"/>
    <trip id="340" depart="715.00" from="edge1_1" to="-edge2"/>
    <trip id="341" depart="721.00" from="edge0_1" to="-edge2"/>
    <trip id="342" depart="722.00" from="edge0_1" to="-edge1_3"/>
    <trip id="343" depart="723.00" from="edge2_1" to="-edge1_3"/>
    <trip id="344" depart="724.00" from="edge0_1" to="-edge1_3"/>
    <trip id="345" depart="728.00" from="edge3_1" to="-edge2"/>
    <trip id="346" depart="729.00" from="edge1_1" to="-edge1_3"/>
    <trip id="347" depart="731.00" from="edge1_1" to="-edge2"/>
    <trip id="348" depart="734.00" from="edge3_1" to="-edge2"/>
    <trip id="349" depart="735.00" from="edge2_1" to="-edge2"/>
    <trip id="350" depart="737.00" from="edge2_1" to="-edge2"/>
    <trip id="351" depart="738.00" from="edge2_1" to="-edge1_3"/>
    <trip id="352" depart="739.00" from="edge1_1" to="-edge0_2"/>
    <trip id="353" depart="745.00" from="edge1_1" to="-edge1_3"/>
    <trip id="354" depart="749.00" from="edge3_1" to="-edge2"/>
    <trip id="355" depart="751.00" from="edge0_1" to="-edge3_2"/>
    <trip id="356" depart="752.00" from="edge0_1" to="-edge0_2"/>
    <trip id="357" depart="755.00" from="edge3_1" to="-edge1_3"/>
    <trip id="358" depart="756.00" from="edge2_1" to="-edge3_2"/>
    <trip id="359" depart="759.00" from="edge0_1" to="-edge2"/>
    <trip id="360" depart="765.00" from="edge3_1" to="-edge0_2"/>
    <trip id="361" depart="766.00" from="edge2_1" to="-edge3_2"/>
    <trip id="362" depart="766.00" from="edge1_1" to="-edge3_2"/>
    <trip id="363" depart="768.00" from="edge3_1" to="-edge2"/>
    <trip id="364" depart="768.00" from="edge1_1" to="-edge0_2"/>
    <trip id="365" depart="768.00" from="edge3_1" to="-edge3_2"/>
    <trip id="366" depart="769.00" from="edge2_1" to="-edge3_2"/>
    <trip id="367" depart="770.00" from="edge0_1" to="-edge0_2"/>
    <trip id="368" depart="776.00" from="edge3_1" to="-edge1_3"/>
    <trip id="369" depart="777.00" from="edge3_1" to="-edge2"/>
    <trip id="370" depart="780.00" from="edge0_1" to="-edge0_2"/>
    <trip id="371" depart="781.00" from="edge0_1" to="-edge3_2"/>
    <trip id="372" depart="785.00" from="edge3_1" to="-edge1_3"/>
    <trip id="373" depart="786.00" from="edge3_1" to="-edge1_3"/>
    <trip id="374" depart="788.00" from="edge2_1" to="-edge1_3"/>
    <trip id="375" depart="791.00" from="edge3_1" to="-edge3_2"/>
    <trip id="376" depart="793.00" from="edge1_1" to="-edge3_2"/>
    <trip id="377" depart="794.00" from="edge1_1" to="-edge0_2"/>
    <trip id="378" depart="796.00" from="edge2_1" to="-edge1_3"/>
    <trip id="379" depart="797.00" from="edge0_1" to="-edge3_2"/>
    <trip id="380" depart="797.00" from="edge0_1" to="-edge3_2"/>
    <trip id="381" depart="798.00" from="edge0_1" to="-edge2"/>
    <trip id="382" depart="799.00" from="edge2_1" to="-edge0_2"/>
    <trip id="383" depart="799.00" from="edge1_1" to="-edge3_2"/>
    <trip id="384" depart="804.00" from="edge0_1" to="-edge3_2"/>
    <trip id="385" depart="805.00" from="edge1_1" to="-edge0_2"/>
    <trip id="386" depart="807.00" from="edge0_1" to="-edge1_3"/>
    <trip id="387" depart="808.00" from="edge0_1" to="-edge0_2"/>
    <trip id="388" depart="811.00" from="edge2_1" to="-edge1_3"/>
    <trip id="389" depart="812.00" from="edge2_1" to="-edge3_2"/>
    <trip id="390" depart="817.00" from="edge0_1" to="-edge3_2"/>
    <trip id="391" depart="822.00" from="edge3_1" to="-edge0_2"/>
    <trip id="392" depart="822.00" from="edge2_1" to="-edge1_3"/>
    <trip id="393" depart="823.00" from="edge2_1" to="-edge3_2"/>
    <trip id="394" depart="825.00" from="edge1_1" to="-edge3_2"/>
    <trip id="395" depart="826.00" from="edge3_1" to="-edge1_3"/>
    <trip id="396" depart="826.00" from="edge1_1" to="-edge1_3"/>
    <trip id="397" depart="827.00" from="edge3_1" to="-edge2"/>
    <trip id="398" depart="827.00" from="edge3_1" to="-edge2"/>
    <trip id="399" depart="829.00" from="edge2_1" to="-edge0_2"/>
    <trip id="400" depart="831.00" from="edge1_1" to="-edge1_3"/>
    <trip id="401" depart="833.00" from="edge3_1" to="-edge1_3"/>
    <trip id="402" depart="833.00" from="edge3_1" to="-edge1_3"/>
    <trip id="403" depart="836.00" from="edge3_1" to="-edge0_2"/>
    <trip id="404" depart="839.00" from="edge1_1" to="-edge1_3"/>
    <trip id="405" depart="841.00" from="edge1_1" to="-edge0_2"/>
    <trip id="406" depart="842.00" from="edge1_1" to="-edge1_3"/>
    <trip id="407" depart="844.00" from="edge2_1" to="-edge3_2"/>
    <trip id="408" depart="847.00" from="edge2_1" to="-edge2"/>
    <trip id="409" depart="848.00" from="edge2_1" to="-edge1_3"/>
    <trip id="410" depart="854.00" from="edge3_1" to="-edge3_2"/>
    <trip id="411" depart="856.00" from="edge3_1" to="-edge3_2"/>
    <trip id="412" depart="857.00" from="edge0_1" to="-edge1_3"/>
    <trip id="413" depart="859.00" from="edge2_1" to="-edge2"/>
    <trip id="414" depart="861.00" from="edge1_1" to="-edge3_2"/>
    <trip id="415" depart="865.00" from="edge2_1" to="-edge1_3"/>
    <trip id="416" depart="868.00" from="edge3_1" to="-edge3_2"/>
    <trip id="417" depart="869.00" from="edge3_1" to="-edge0_2"/>
    <trip id="418" depart="870.00" from="edge2_1" to="-edge3_2"/>
    <trip id="419" depart="870.00" from="edge3_1" to="-edge3_2"/>
    <trip id="420" depart="871.00" from="edge0_1" to="-edge3_2"/>
    <trip id="421" depart="871.00" from="edge0_1" to="-edge1_3"/>
    <trip id="422" depart="871.00" from="edge2_1" to="-edge3_2"/>
    <trip id="423" depart="874.00" from="edge0_1" to="-edge0_2"/>
    <trip id="424" depart="879.00" from="edge1_1" to="-edge0_2"/>
    <trip id="425" depart="880.00" from="edge3_1" to="-edge1_3"/>
    <trip id="426" depart="883.00" from="edge3_1" to="-edge1_3"/>
    <trip id="427" depart="887.00" from="edge0_1" to="-edge2"/>
    <trip id="428" depart="888.00" from="edge3_1" to="-edge3_2"/>
    <trip id="429" depart="890.00" from="edge1_1" to="-edge3_2"/>
    <trip id="430" depart="891.00" from="edge2_1" to="-edge3_2"/>
    <trip id="431" depart="894.00" from="edge0_1" to="-edge3_2"/>
    <trip id="432" depart="895.00" from="edge3_1" to="-edge1_3"/>
    <trip id="433" depart="896.00" from="edge1_1" to="-edge1_3"/>
    <trip id="434" depart="897.00" from="edge1_1" to="-edge1_3"/>
    <trip id="435" depart="901.00" from="edge3_1" to="-edge1_3"/>
    <trip id="436" depart="902.00" from="edge3_1" to="-edge1_3"/>
    <trip id="437" depart="905.00" from="edge2_1" to="-edge3_2"/>
    <trip id="438" depart="908.00" from="edge0_1" to="-edge1_3"/>
    <trip id="439" depart="911.00" from="edge0_1" to="-edge0_2"/>
    <trip id="440" depart="912.00" from="edge3_1" to="-edge0_2"/>
    <trip id="441" depart="920.00" from="edge3_1" to="-edge2"/>
    <trip id="442" depart="925.00" from="edge3_1" to="-edge3_2"/>
    <trip id="443" depart="927.00" from="edge0_1" to="-edge2"/>
    <trip id="444" depart="929.00" from="edge0_1" to="-edge2"/>
    <trip id="445" depart="939.00" from="edge0_1" to="-edge1_3"/>
    <trip id="446" depart="941.00" from="edge1_1" to="-edge0_2"/>
    <trip id="447" depart="942.00" from="edge1_1" to="-edge2"/>
    <trip id="448" depart="945.00" from="edge0_1" to="-edge3_2"/>
    <trip id="449" depart="948.00" from="edge0_1" to="-edge0_2"/>
    <trip id="450" depart="948.00" from="edge1_1" to="-edge2"/>
    <trip id="451" depart="948.00" from="edge1_1" to="-edge2"/>
    <trip id="452" depart="952.00" from="edge3_1" to="-edge2"/>